/*--------------------------------*- C++ -*----------------------------------*\
  =========                 |
  \\      /  F ield         | OpenFOAM: The Open Source CFD Toolbox
   \\    /   O peration     | Website:  https://openfoam.org
    \\  /    A nd           | Version:  11
     \\/     M anipulation  |
\*---------------------------------------------------------------------------*/
FoamFile
{
    format      ascii;
    class       extendedFeatureEdgeMesh;
    location    "constant/extendedFeatureEdgeMesh";
    object      cylinder.extendedFeatureEdgeMesh;
}
// * * * * * * * * * * * * * * * * * * * * * * * * * * * * * * * * * * * * * //

// points

490
(
(60 50.7006 -50)
(55 76.0171 -50)
(40 75.9945 -90)
(50 101.334 -50)
(45 113.969 -60)
(35 164.602 -50)
(-35 189.919 30)
(-25 227.916 30)
(20 240.551 -40)
(5 303.843 30)
(265 329.069 60)
(0 368.688 -1.61159e-05)
(295 6.11804e-06 139.964)
(295 6.11959e-06 140)
(295 6.11803e-06 139.964)
(-75.0059 8.74228e-07 20)
(-75 8.74228e-07 20)
(-75.006 8.74228e-07 20)
(230 -4.75747e-05 -70)
(230 -2.99669e-06 -68.5562)
(230 -2.99668e-06 -68.5561)
(270 -4.75747e-05 -70)
(270 -2.94935e-06 -67.4732)
(275 -4.75747e-05 -70)
(275 -2.99669e-06 -68.5562)
(270 -2.94935e-06 -67.4733)
(275 -2.99668e-06 -68.5561)
(295 12.6582 136.631)
(-60 0.0676967 90)
(-60 12.6582 80.0534)
(-60 12.6582 80.0535)
(-70.0076 12.6582 40)
(-71.0107 1.74846e-06 40)
(-70.0077 12.6582 40)
(-75 0.0451284 20)
(-70.0076 12.6582 -40)
(-71.0107 -1.74846e-06 -40)
(-70.0077 12.6582 -40)
(230 12.6582 -68.3155)
(270 12.6582 -66.631)
(275 12.6582 -68.3155)
(40 0.0451218 -130)
(35.0178 12.6582 -130)
(35.0179 12.6582 -130)
(-60 12.7259 80)
(-70 12.7034 40)
(-70.0076 25.3165 20)
(-71.2634 12.6582 20)
(-70.0077 25.3165 20)
(71.6845 12.6582 10)
(70.8422 25.3165 10)
(70.8423 25.3165 10)
(71.6845 12.6582 -5.53309e-07)
(70.8422 25.3165 -1.10662e-06)
(70.8423 25.3165 -1.10662e-06)
(71.6845 12.6582 -10)
(70.8422 25.3165 -10)
(-70.0076 25.3165 -20)
(-71.2634 12.6582 -20)
(70.8423 25.3165 -10)
(-70.0077 25.3165 -20)
(-70 12.7034 -40)
(35 12.6921 -130)
(-70 25.3616 20)
(70 29.581 10)
(70 29.581 -1.29303e-06)
(70 29.581 -10)
(-70 25.3616 -20)
(65 37.9747 -40.0535)
(65 25.3841 -50)
(65 37.9747 -40.0534)
(45 25.3616 -110)
(40.0179 37.9747 -110)
(40.0178 37.9747 -110)
(66.6845 37.9747 10)
(65.8422 50.6329 10)
(65.8423 50.6329 10)
(66.6845 37.9747 -1.65993e-06)
(65.8422 50.6329 -2.21323e-06)
(65.8423 50.6329 -2.21323e-06)
(66.6845 37.9747 -10)
(65.8422 50.6329 -10)
(65.8423 50.6329 -10)
(65 38.0198 -40)
(60 50.6329 -50.0534)
(60 38.0424 -60)
(60 50.6329 -50.0535)
(40 38.0424 -110)
(65 54.8975 10)
(65 54.8975 -2.39964e-06)
(65 54.8975 -10)
(60 63.2911 -40.0535)
(60 63.2911 -40.0534)
(61.6845 63.2911 10)
(60.8422 75.9494 10)
(60.8423 75.9494 10)
(61.6845 63.2911 -2.76654e-06)
(60.8422 75.9494 -3.31985e-06)
(60.8423 75.9494 -3.31985e-06)
(61.6845 63.2911 -10)
(60.8422 75.9494 -10)
(60.8423 75.9494 -10)
(60 63.3363 -40)
(55 75.9494 -50.0534)
(55 63.3588 -60)
(55 75.9494 -50.0535)
(225 63.2911 -69.9866)
(225 75.9494 -68.5562)
(225 75.9494 -68.5561)
(275 63.2911 -67.9786)
(275 75.9494 -67.4732)
(275 75.9494 -67.4733)
(45 63.3363 -90)
(40.0179 75.9494 -90)
(40 63.3363 -100)
(35.0178 75.9494 -100)
(40.0178 75.9494 -90)
(35.0179 75.9494 -100)
(-55.0077 88.6076 40)
(-56.2634 75.9494 40)
(56.2634 75.9494 40)
(55.0076 88.6076 40)
(-55.0076 88.6076 40)
(55.0077 88.6076 40)
(60 80.2139 10)
(60 80.2139 -3.50626e-06)
(60 80.2139 -10)
(-55.0077 88.6076 -40)
(-56.2634 75.9494 -40)
(-55.0076 88.6076 -40)
(55 88.6076 -40.0535)
(55 88.6076 -40.0534)
(225 88.6076 -68.3155)
(275 88.6076 -66.631)
(45 75.9945 -80)
(40.0179 88.6076 -80)
(35.0178 88.6076 -90)
(40.0178 88.6076 -80)
(35.0179 88.6076 -90)
(35 75.9945 -100)
(-55 88.6527 40)
(55 88.6527 40)
(-55.0077 101.266 20)
(-56.2634 88.6076 20)
(56.2634 88.6076 20)
(55.0076 101.266 20)
(-55.0076 101.266 20)
(55.0077 101.266 20)
(56.6845 88.6076 10)
(55.8423 101.266 10)
(55.8422 101.266 10)
(56.6845 88.6076 -3.87316e-06)
(55.8423 101.266 -4.42647e-06)
(55.8422 101.266 -4.42647e-06)
(56.6845 88.6076 -10)
(55.8423 101.266 -10)
(-55.0077 101.266 -20)
(-56.2634 88.6076 -20)
(55.8422 101.266 -10)
(-55.0076 101.266 -20)
(-55 88.6527 -40)
(55 88.6527 -40)
(50 101.266 -50.0534)
(50 88.6753 -60)
(50 101.266 -50.0535)
(40 88.743 -80)
(35 88.743 -90)
(260 101.266 -271.684)
(260 88.6076 -272.527)
(260 101.266 -271.685)
(-50.0076 113.924 40)
(-51.2634 101.266 40)
(51.2634 101.266 40)
(50.0077 113.924 40)
(-50.0077 113.924 40)
(50.0076 113.924 40)
(-55 101.311 20)
(55 101.311 20)
(55 105.53 10)
(55 105.53 -4.61288e-06)
(55 105.53 -10)
(-55 101.311 -20)
(-50.0076 113.924 -40)
(-51.2634 101.266 -40)
(-50.0077 113.924 -40)
(50 113.924 -40.0535)
(50 113.924 -40.0534)
(260 113.924 -271.263)
(-50 113.969 40)
(50 113.969 40)
(-50.0076 126.582 20)
(-51.2634 113.924 20)
(51.2634 113.924 20)
(50.0077 126.582 20)
(-50.0077 126.582 20)
(50.0076 126.582 20)
(51.6845 113.924 10)
(50.8423 126.582 9.99999)
(50.8422 126.582 9.99999)
(51.6845 113.924 -4.97978e-06)
(50.8423 126.582 -5.53309e-06)
(50.8422 126.582 -5.53309e-06)
(51.6845 113.924 -10)
(50.8423 126.582 -10)
(-50.0076 126.582 -20)
(-51.2634 113.924 -20)
(50.8422 126.582 -10)
(-50.0077 126.582 -20)
(-50 113.969 -40)
(50 113.969 -40)
(40.0179 126.582 -60)
(45 126.582 -50.0357)
(45 126.582 -50.0356)
(40 113.969 -70)
(35.0178 126.582 -70)
(40.0178 126.582 -60)
(35.0179 126.582 -70)
(20 126.582 -92.5268)
(20 113.969 -100)
(20 126.582 -92.5267)
(-50 126.627 20)
(50 126.627 20)
(50 130.847 9.99999)
(50 130.847 -5.7195e-06)
(50 130.847 -10)
(-50 126.627 -20)
(40 126.65 -60)
(45 126.616 -50)
(35 126.718 -70)
(280 126.582 -67.9786)
(280 139.241 -67.4732)
(280 139.241 -67.4733)
(10 139.241 -92.5268)
(10 126.627 -100)
(10 139.241 -92.5267)
(20 132.979 -90)
(-45 139.308 30)
(-45 151.899 20.0534)
(-45 151.899 20.0535)
(46.6845 139.241 9.99999)
(45.8423 151.899 9.99999)
(45.8422 151.899 9.99999)
(46.6845 139.241 -6.0864e-06)
(45.8423 151.899 -6.63971e-06)
(45.8422 151.899 -6.63971e-06)
(46.6845 139.241 -10)
(45.8423 151.899 -10)
(45.8422 151.899 -10)
(280 151.899 -66.631)
(10 151.899 -90.0153)
(-40 151.966 40)
(-40 164.557 30.0535)
(-40 164.557 30.0534)
(-45 151.944 20)
(45 156.163 9.99999)
(45 156.163 -6.82611e-06)
(45 156.163 -10)
(35 164.557 -50.0357)
(35 151.944 -60)
(35 164.557 -50.0356)
(10 164.557 -82.5267)
(10 151.944 -90)
(10 164.557 -82.5268)
(-40 164.602 30)
(41.6845 164.557 -7.19301e-06)
(40.8423 177.215 -7.74632e-06)
(40.8422 177.215 -7.74632e-06)
(35 177.215 -40.0356)
(35 177.215 -40.0357)
(30 177.215 -50.0357)
(30 164.602 -60)
(30 177.215 -50.0356)
(10 170.954 -80)
(245 189.873 88.5562)
(245 177.215 88.877)
(245 189.873 88.5561)
(260 189.873 88.5562)
(260 177.215 88.877)
(260 189.873 88.5561)
(-35 177.283 40)
(-35 189.873 30.0535)
(-35.0077 189.873 30)
(-36.2634 177.215 30)
(-35 189.873 30.0534)
(36.2634 177.215 30)
(35.0076 189.873 30)
(-35.0076 189.873 30)
(35.0077 189.873 30)
(40 181.48 -7.93273e-06)
(-35.0077 189.873 -30)
(-36.2634 177.215 -30)
(-35.0076 189.873 -30)
(35 177.283 -40)
(30 177.351 -50)
(285 177.215 -67.9786)
(285 189.873 -67.4732)
(285 189.873 -67.4733)
(245 202.532 87.4733)
(260 202.532 87.4733)
(35 189.919 30)
(-35.0077 202.532 9.99999)
(-36.2634 189.873 9.99999)
(36.2634 189.873 9.99999)
(35.0076 202.532 9.99999)
(-35.0076 202.532 9.99999)
(35.0077 202.532 9.99999)
(36.6845 189.873 -8.29963e-06)
(35.8423 202.532 -8.85294e-06)
(-35.0077 202.532 -10)
(-36.2634 189.873 -10)
(35.8422 202.532 -8.85294e-06)
(-35.0076 202.532 -10)
(-35 189.919 -30)
(285 202.532 -66.631)
(-30.0076 215.19 30)
(-31.2634 202.532 30)
(31.2634 202.532 30)
(30.0077 215.19 30)
(-30.0077 215.19 30)
(30.0076 215.19 30)
(-35 202.577 9.99999)
(35 202.577 9.99999)
(35 206.796 -9.03935e-06)
(-35 202.577 -10)
(-30.0076 215.19 -30)
(-31.2634 202.532 -30)
(-30.0077 215.19 -30)
(30 215.19 -30.0357)
(30 202.577 -40)
(30 215.19 -30.0356)
(25 215.19 -40.0356)
(25 202.577 -50)
(25 215.19 -40.0357)
(20 215.19 -50.0357)
(20 202.577 -60)
(20 215.19 -50.0356)
(220 227.848 99.9821)
(220 227.713 100)
(220 227.848 99.9822)
(230 227.848 88.5562)
(230 215.19 89.9866)
(230 227.848 88.5561)
(275 227.848 88.5562)
(275 215.19 89.9866)
(275 227.848 88.5561)
(5 215.19 62.5267)
(5 227.848 60.0153)
(5 227.848 60.0152)
(-30 215.224 30)
(-25 215.258 40)
(-25 227.848 30.0535)
(-25 227.848 30.0534)
(30 215.224 30)
(-30.0076 227.848 9.99999)
(-31.2634 215.19 9.99999)
(31.2634 215.19 9.99999)
(30.0077 227.848 9.99999)
(-30.0077 227.848 9.99999)
(30.0076 227.848 9.99999)
(-30.0076 227.848 -10)
(-31.2634 215.19 -10)
(-30.0077 227.848 -10)
(-30 215.224 -30)
(30 215.224 -30)
(25 215.258 -40)
(20 215.258 -50)
(220 240.506 97.9786)
(230 240.506 87.9786)
(275 240.506 87.9786)
(5 227.893 60)
(-25 240.506 20.0534)
(-25 240.506 20.0535)
(-30 227.893 9.99999)
(30 227.893 9.99999)
(-30 227.893 -10)
(20 240.506 -40.0178)
(20 227.848 -43.369)
(20 240.506 -40.0179)
(5 240.506 -52.5268)
(5 227.893 -60)
(5 240.506 -52.5267)
(290 227.848 -69.9786)
(290 240.506 -67.4732)
(290 240.506 -67.4733)
(245 253.165 78.5561)
(245 240.506 78.877)
(245 253.165 78.5562)
(260 253.165 78.5561)
(260 240.506 78.877)
(260 253.165 78.5562)
(5 240.506 52.5267)
(5 253.165 50.0152)
(5 253.165 50.0153)
(-25 240.574 20)
(20 253.165 -30.0357)
(20 253.165 -30.0356)
(15 253.165 -40.0178)
(15 240.506 -43.369)
(15 253.165 -40.0179)
(5 253.165 -50.0153)
(290 253.165 -66.631)
(245 265.823 77.4732)
(260 265.823 77.4732)
(5 253.21 50)
(-20 253.232 30)
(-20 265.823 20.0534)
(-20 265.823 20.0535)
(20 253.232 -30)
(10 265.823 -40.0178)
(10 253.165 -43.369)
(15 253.232 -40)
(10 265.823 -40.0179)
(5 265.823 42.5267)
(5 278.481 40.0153)
(5 278.481 40.0152)
(-20 265.89 20)
(-20.0077 278.481 9.99999)
(-21.2634 265.823 9.99999)
(-20.0076 278.481 9.99999)
(-20.0077 278.481 -10)
(-21.2634 265.823 -10)
(-20.0076 278.481 -10)
(10 265.89 -40)
(5 278.526 40)
(-20 278.526 9.99999)
(-20 278.526 -10)
(225 303.797 79.9822)
(225 303.662 80)
(225 303.797 79.9821)
(255 303.797 67.4732)
(255 291.139 68.5561)
(255 303.797 67.4733)
(5 291.139 32.5267)
(5 303.797 30.0152)
(5 303.797 30.0153)
(-15.0076 303.797 9.99999)
(-16.2634 291.139 9.99999)
(16.2634 291.139 9.99999)
(15.0076 303.797 9.99999)
(-15.0077 303.797 9.99999)
(15.0077 303.797 9.99999)
(-15.0076 303.797 -10)
(-16.2634 291.139 -10)
(-15.0077 303.797 -10)
(10 291.184 -30)
(5.01785 303.797 -30)
(5.01781 303.797 -30)
(225 316.456 77.4732)
(255 316.411 60)
(265 316.456 67.4732)
(265 303.797 68.5561)
(265 316.456 67.4733)
(-5 303.843 30)
(-5 316.456 22.5267)
(-5 316.456 22.5268)
(5 316.456 22.5267)
(5 316.456 22.5268)
(-15 303.843 9.99999)
(15 303.843 9.99999)
(-15 303.843 -10)
(5 303.843 -30)
(240 329.114 59.9821)
(240 329.069 60)
(240 329.114 59.9822)
(265 329.114 59.9821)
(265 329.114 59.9822)
(-5 322.853 20)
(5 322.853 20)
(280 341.772 69.9822)
(280 341.637 70)
(280 341.772 69.9821)
(240 341.772 56.631)
(265 341.772 56.631)
(280 354.43 66.631)
(-2.52674 354.43 -1.54926e-05)
(-5 348.169 -1.52189e-05)
(-2.5267 354.43 -1.54926e-05)
(-1.0107 367.089 -1.6046e-05)
(-1.01067 367.089 -1.6046e-05)
(0 367.089 -2.02139)
(0 354.43 -5.0535)
(0 367.089 -2.02142)
(210 366.953 -50)
(210 367.089 -49.9466)
(210 367.089 -49.9465)
(210 379.679 -40)
(205 392.27 -50)
(205 392.405 -49.9466)
(205 392.405 -49.9465)
(205 404.996 -40)
)

// edges

502
(
(12 13)
(13 14)
(15 16)
(16 17)
(18 19)
(20 18)
(21 22)
(23 24)
(25 21)
(26 23)
(27 12)
(14 27)
(28 29)
(30 28)
(31 32)
(32 33)
(34 15)
(17 34)
(35 36)
(36 37)
(19 38)
(38 20)
(22 39)
(24 40)
(39 25)
(40 26)
(41 42)
(43 41)
(29 44)
(44 30)
(45 31)
(33 45)
(46 47)
(47 48)
(49 50)
(51 49)
(52 53)
(54 52)
(55 56)
(57 58)
(59 55)
(58 60)
(61 35)
(37 61)
(42 62)
(62 43)
(63 46)
(48 63)
(50 64)
(53 65)
(64 51)
(56 66)
(65 54)
(67 57)
(66 59)
(60 67)
(68 69)
(69 70)
(71 72)
(73 71)
(74 75)
(76 74)
(77 78)
(79 77)
(80 81)
(82 80)
(83 68)
(70 83)
(84 85)
(85 86)
(72 87)
(87 73)
(75 88)
(78 89)
(88 76)
(81 90)
(89 79)
(90 82)
(91 0)
(0 92)
(0 84)
(86 0)
(93 94)
(95 93)
(96 97)
(98 96)
(99 100)
(101 99)
(102 91)
(92 102)
(103 104)
(104 105)
(106 107)
(108 106)
(109 110)
(111 109)
(112 113)
(114 115)
(116 112)
(117 114)
(118 119)
(120 121)
(119 122)
(123 120)
(94 124)
(97 125)
(124 95)
(100 126)
(125 98)
(126 101)
(127 128)
(128 129)
(130 1)
(1 131)
(1 103)
(105 1)
(107 132)
(132 108)
(110 133)
(133 111)
(134 135)
(2 136)
(137 134)
(113 2)
(138 2)
(115 139)
(2 116)
(139 117)
(140 118)
(121 141)
(122 140)
(141 123)
(142 143)
(144 145)
(143 146)
(147 144)
(148 149)
(150 148)
(151 152)
(153 151)
(154 155)
(156 157)
(158 154)
(157 159)
(160 127)
(129 160)
(161 130)
(131 161)
(162 163)
(163 164)
(135 165)
(136 166)
(165 137)
(166 138)
(167 168)
(168 169)
(170 171)
(172 173)
(171 174)
(175 172)
(176 142)
(145 177)
(146 176)
(149 178)
(177 147)
(152 179)
(178 150)
(155 180)
(179 153)
(181 156)
(180 158)
(159 181)
(182 183)
(183 184)
(185 3)
(3 186)
(3 162)
(164 3)
(187 167)
(169 187)
(188 170)
(173 189)
(174 188)
(189 175)
(190 191)
(192 193)
(191 194)
(195 192)
(196 197)
(198 196)
(199 200)
(201 199)
(202 203)
(204 205)
(206 202)
(205 207)
(208 182)
(184 208)
(209 185)
(186 209)
(4 210)
(211 4)
(4 212)
(213 214)
(215 4)
(216 213)
(217 218)
(218 219)
(220 190)
(193 221)
(194 220)
(197 222)
(221 195)
(200 223)
(222 198)
(203 224)
(223 201)
(225 204)
(224 206)
(207 225)
(210 226)
(227 211)
(212 227)
(214 228)
(226 215)
(229 230)
(231 229)
(228 216)
(232 233)
(233 234)
(235 217)
(219 235)
(236 237)
(238 236)
(239 240)
(241 239)
(242 243)
(244 242)
(245 246)
(247 245)
(230 248)
(248 231)
(249 232)
(234 249)
(250 251)
(252 250)
(237 253)
(253 238)
(240 254)
(243 255)
(254 241)
(246 256)
(255 244)
(256 247)
(257 258)
(258 259)
(260 261)
(261 262)
(251 263)
(263 252)
(264 265)
(266 264)
(267 5)
(5 268)
(269 270)
(270 271)
(5 257)
(259 5)
(272 260)
(262 272)
(273 274)
(274 275)
(276 277)
(277 278)
(279 280)
(281 282)
(283 279)
(284 285)
(282 286)
(287 284)
(265 288)
(288 266)
(289 290)
(290 291)
(292 267)
(268 292)
(293 269)
(271 293)
(294 295)
(296 294)
(297 273)
(275 297)
(298 276)
(278 298)
(280 6)
(6 281)
(6 283)
(285 299)
(286 6)
(299 287)
(300 301)
(302 303)
(301 304)
(305 302)
(306 307)
(308 309)
(310 306)
(309 311)
(312 289)
(291 312)
(295 313)
(313 296)
(314 315)
(316 317)
(315 318)
(319 316)
(320 300)
(303 321)
(304 320)
(307 322)
(321 305)
(323 308)
(322 310)
(311 323)
(324 325)
(325 326)
(327 328)
(328 329)
(330 331)
(331 332)
(333 334)
(334 335)
(336 337)
(337 338)
(339 340)
(340 341)
(342 343)
(343 344)
(345 346)
(347 345)
(348 314)
(349 350)
(351 349)
(317 352)
(318 348)
(352 319)
(353 354)
(355 356)
(354 357)
(358 355)
(359 360)
(360 361)
(362 324)
(326 362)
(363 327)
(329 363)
(364 330)
(332 364)
(365 333)
(335 365)
(366 336)
(338 366)
(367 339)
(341 367)
(368 342)
(344 368)
(346 369)
(369 347)
(350 7)
(7 351)
(7 370)
(371 7)
(372 353)
(356 373)
(357 372)
(373 358)
(374 359)
(361 374)
(375 376)
(376 377)
(378 379)
(379 380)
(381 382)
(383 381)
(384 385)
(385 386)
(387 388)
(388 389)
(390 391)
(392 390)
(370 393)
(393 371)
(394 8)
(8 395)
(396 397)
(8 375)
(397 398)
(377 8)
(399 378)
(380 399)
(382 400)
(400 383)
(401 384)
(386 401)
(402 387)
(389 402)
(391 403)
(403 392)
(404 405)
(406 404)
(407 394)
(395 407)
(408 409)
(410 396)
(409 411)
(398 410)
(412 413)
(414 412)
(405 415)
(415 406)
(416 417)
(417 418)
(419 420)
(420 421)
(422 408)
(411 422)
(413 423)
(423 414)
(424 416)
(418 424)
(425 419)
(421 425)
(426 427)
(427 428)
(429 430)
(430 431)
(432 433)
(434 432)
(435 436)
(437 438)
(436 439)
(440 437)
(441 442)
(442 443)
(444 445)
(446 444)
(447 426)
(428 447)
(448 429)
(431 448)
(449 450)
(450 451)
(433 9)
(9 434)
(452 453)
(454 452)
(9 455)
(456 9)
(457 435)
(438 458)
(439 457)
(458 440)
(459 441)
(443 459)
(445 460)
(460 446)
(10 449)
(451 10)
(461 462)
(462 463)
(464 10)
(10 465)
(453 466)
(466 454)
(455 467)
(467 456)
(468 469)
(469 470)
(471 461)
(463 471)
(472 464)
(465 472)
(473 468)
(470 473)
(474 475)
(475 476)
(477 474)
(476 478)
(479 480)
(480 481)
(482 483)
(484 482)
(11 477)
(478 11)
(11 479)
(481 11)
(483 485)
(485 484)
(486 487)
(488 486)
(487 489)
(489 488)
)

// concaveStart mixedStart nonFeatureStart
0 0 12
// internalStart flatStart openStart multipleStart
0 0 0 502
// normals

499
(
(1.72209e-09 -1 4.30675e-08)
(0 -1 4.33454e-08)
(0 -1 4.36912e-08)
(0 -1 4.49519e-06)
(-2.64339e-05 -1 3.08754e-05)
(-6.67708e-06 -1 3.08733e-05)
(2.63312e-05 -1 1.76608e-05)
(0 -1 3.08754e-05)
(3.81566e-06 -1 1.76615e-05)
(2.64184e-05 -1 3.08733e-05)
(0.888318 -0.116933 -0.444092)
(0.968188 -0.0637148 -0.241978)
(-0.952603 0.188585 0.238713)
(-0.920397 0.242371 0.306799)
(-0.996462 0.0789645 0.0287774)
(-0.985683 0.0781026 0.14943)
(-0.990091 0.129391 0.0545707)
(-0.989787 0.131526 0.054983)
(-0.991928 0.0786052 -0.0995)
(-0.996463 0.0789567 -0.0287774)
(-0.707147 -0.0134427 0.706939)
(-0.319217 -0.0180098 0.947511)
(0.831491 -0.0368806 0.554312)
(0.211636 -0.0185812 0.977172)
(0.318636 -0.0629343 0.945786)
(0.650624 -0.0144317 0.759263)
(0.843335 0.33312 -0.421685)
(0.62399 0.246473 -0.741544)
(-0.919698 0.243152 0.308274)
(-0.920422 0.242376 0.30672)
(-0.983747 0.165386 0.0699291)
(-0.981021 0.167081 0.0983962)
(-0.9948 0.0986917 0.0251387)
(-0.994243 0.0986286 0.041868)
(0.994352 0.0661656 0.082979)
(0.997794 0.0663867 0)
(0.997793 0.0663945 -9.89633e-06)
(0.997794 0.0663867 0)
(0.997793 0.0663945 -9.89633e-06)
(-0.991701 0.0983841 -0.0827676)
(0.996914 0.0663282 -0.0419805)
(-0.994801 0.098684 -0.0251387)
(-0.980738 0.164881 -0.104726)
(-0.983335 0.167475 -0.0707465)
(0.809121 0.424842 -0.405996)
(0.66417 0.350676 -0.66023)
(-0.983692 0.165738 0.0698592)
(-0.982426 0.167685 0.0819837)
(0.97778 0.193103 0.081596)
(0.981051 0.193749 -9.73027e-06)
(0.981047 0.193771 0)
(0.981051 0.193749 -9.73028e-06)
(0.981047 0.193771 0)
(-0.983687 0.165737 -0.0699309)
(0.977784 0.193127 -0.0814878)
(-0.98327 0.167829 -0.0708075)
(0.920397 0.242369 -0.306799)
(0.98395 0.110618 -0.140022)
(0.84334 0.333114 -0.421679)
(0.684253 0.270281 -0.677308)
(0.994352 0.066166 0.0829888)
(0.997794 0.0663873 0)
(0.997793 0.0663951 -9.89633e-06)
(0.997794 0.0663873 0)
(0.997793 0.0663951 -9.89633e-06)
(0.996914 0.0663287 -0.0419805)
(0.932456 0.276238 -0.232847)
(0.976531 0.164545 -0.138966)
(0.920398 0.242371 -0.306796)
(0.97826 0.128556 -0.162729)
(0.869831 0.229968 -0.436472)
(0.698907 0.183755 -0.691204)
(0.97778 0.193098 0.0816057)
(0.981052 0.193745 -9.73028e-06)
(0.981048 0.193767 0)
(0.981052 0.193745 -9.73028e-06)
(0.981048 0.193767 0)
(0.977785 0.193122 -0.0814879)
(0.920397 0.242371 -0.306799)
(0.98395 0.110619 -0.140022)
(0.92026 0.242335 -0.307238)
(0.978254 0.1286 -0.162729)
(0.994352 0.0661655 0.0829888)
(0.997794 0.0663867 0)
(0.997793 0.0663945 -9.89632e-06)
(0.997794 0.0663867 0)
(0.997793 0.0663945 -9.89633e-06)
(0.996914 0.0663282 -0.0419801)
(0.932341 0.276204 -0.23335)
(0.976591 0.16418 -0.138975)
(0.920398 0.24237 -0.306796)
(0.97826 0.128555 -0.162729)
(-0.648505 -0.0854738 0.756396)
(-0.210393 -0.109781 0.971433)
(0.518224 -0.0341197 0.854564)
(0.448558 -0.035649 0.893042)
(0.843346 0.333117 -0.421665)
(0.84334 0.333121 -0.421674)
(0.843341 0.333121 -0.421671)
(0.68357 0.270006 -0.678106)
(-0.987451 0.0979556 0.123876)
(0.98745 0.0979636 0.123876)
(-0.987344 0.097953 0.124731)
(0.987344 0.097945 0.124731)
(0.977779 0.193103 0.0816057)
(0.981051 0.193749 -9.73027e-06)
(0.981047 0.193771 0)
(0.981051 0.193749 -9.73028e-06)
(0.981047 0.193771 0)
(0.977784 0.193127 -0.0814878)
(-0.990196 0.0982279 -0.0993165)
(-0.98745 0.0979636 -0.123876)
(0.920397 0.242371 -0.306799)
(0.98395 0.110619 -0.140022)
(0.920265 0.242336 -0.307223)
(0.978253 0.128607 -0.162728)
(-0.707147 -0.0134427 0.706939)
(-0.319217 -0.0180098 0.947511)
(0.831491 -0.0368806 0.554312)
(0.318636 -0.0629344 0.945786)
(0.843344 0.333116 -0.421668)
(0.843341 0.333121 -0.421671)
(0.843341 0.333121 -0.421671)
(0.842894 0.334534 -0.421447)
(0.843343 0.333116 -0.421671)
(0.843415 0.332886 -0.421708)
(0.843832 0.33305 -0.420744)
(0.682546 0.270894 -0.678784)
(-0.975955 0.166649 0.140496)
(0.976572 0.164524 0.138705)
(-0.981315 0.165323 0.0984358)
(0.980147 0.167364 0.106305)
(-0.994801 0.0986832 0.0251387)
(0.994801 0.0986912 0.0251387)
(-0.994242 0.0986358 0.0418676)
(0.994243 0.0986278 0.0418676)
(0.994352 0.0661572 0.0829885)
(0.997793 0.066394 0)
(0.997794 0.0663862 9.89633e-06)
(0.997793 0.066394 0)
(0.997794 0.0663862 9.89634e-06)
(-0.991702 0.0983757 -0.0827575)
(0.996914 0.0663355 -0.0419801)
(-0.994801 0.0986912 -0.0251387)
(-0.980147 0.167364 -0.106305)
(-0.976536 0.164518 -0.138967)
(0.93245 0.276232 -0.232881)
(0.976536 0.164518 -0.138967)
(0.920399 0.242368 -0.306796)
(0.97826 0.128554 -0.162729)
(0.88824 0.117418 -0.44412)
(0.888308 0.116776 -0.444154)
(0.888308 0.116776 -0.444154)
(0.887753 0.117353 -0.44511)
(0.1659 0.0655295 -0.983963)
(0.0839163 0.0661371 -0.994276)
(-0.98745 0.097965 0.123876)
(0.987451 0.0979571 0.123876)
(-0.987344 0.0979465 0.124731)
(0.987343 0.0979545 0.124731)
(-0.983195 0.168283 0.0707703)
(0.98363 0.166106 0.0698548)
(-0.982717 0.165952 0.0820178)
(0.97777 0.193146 0.0816046)
(0.983179 0.168281 0.0709976)
(0.981042 0.193793 9.73018e-06)
(0.981047 0.193771 0)
(0.981042 0.193793 9.73019e-06)
(0.981047 0.193771 0)
(-0.983179 0.168281 -0.0709976)
(0.977785 0.193127 -0.0814801)
(-0.983626 0.166106 -0.0699205)
(-0.990194 0.0982372 -0.0993265)
(-0.987451 0.0979571 -0.123876)
(0.920395 0.24238 -0.306798)
(0.983522 0.112074 -0.141858)
(0.919867 0.242241 -0.308486)
(0.978326 0.12804 -0.16274)
(0.166168 0.0327783 -0.985553)
(0.0279764 0.0333068 -0.999054)
(-0.976509 0.164904 0.138696)
(0.975891 0.167033 0.140487)
(-0.980885 0.167888 0.0983826)
(0.98057 0.16559 0.105182)
(-0.9948 0.0986943 0.0251387)
(0.994801 0.0986863 0.0251387)
(-0.994243 0.0986309 0.0418676)
(0.994242 0.0986389 0.0418676)
(0.994351 0.0661593 0.0829986)
(0.997793 0.0663961 0)
(0.997794 0.0663883 9.89634e-06)
(0.997793 0.0663961 0)
(0.997794 0.0663883 9.89634e-06)
(-0.9917 0.0983868 -0.0827675)
(0.996914 0.0663376 -0.0419801)
(-0.994801 0.0986863 -0.0251387)
(-0.98057 0.16559 -0.105182)
(-0.975854 0.167027 -0.140752)
(0.932566 0.276273 -0.232365)
(0.975854 0.167027 -0.140752)
(0.843344 0.333118 -0.421668)
(0.95281 0.188182 -0.238203)
(0.84334 0.333124 -0.42167)
(0.84334 0.333124 -0.42167)
(0.843342 0.333118 -0.421671)
(0.543558 0.427864 -0.722134)
(0.753344 0.335224 -0.565772)
(-0.98363 0.166106 0.0698548)
(0.983195 0.168283 0.0707703)
(-0.982349 0.168139 0.0819769)
(0.977778 0.193103 0.0816152)
(0.983614 0.166104 0.0700957)
(0.981051 0.193749 9.73028e-06)
(0.981055 0.193727 0)
(0.981051 0.193749 9.73028e-06)
(0.981055 0.193727 0)
(-0.983614 0.166104 -0.0700958)
(0.977793 0.193083 -0.081481)
(-0.98319 0.168283 -0.0708369)
(0.870921 0.229236 -0.434681)
(0.809591 0.425095 -0.404792)
(0.940293 0.246152 -0.235073)
(0.888673 0.116306 -0.443546)
(0.870878 0.227955 -0.435439)
(0.518224 -0.0341179 0.854564)
(0.767878 -0.02555 0.640087)
(0.887807 0.11684 -0.445137)
(0.395181 0.468224 -0.790315)
(0.650169 0.387279 -0.653678)
(0.421702 0.333113 -0.843328)
(0.422906 0.332895 -0.842811)
(-0.983951 0.11061 0.140017)
(-0.920399 0.242362 0.3068)
(0.994351 0.0661592 0.0829986)
(0.997793 0.0663961 0)
(0.997794 0.0663883 9.89633e-06)
(0.997793 0.0663961 0)
(0.997794 0.0663883 9.89634e-06)
(0.996914 0.0663375 -0.0419801)
(0.831491 -0.0368812 0.554312)
(0.831403 -0.0368943 0.554443)
(0.16301 0.192015 -0.967759)
(0.441086 0.174657 -0.880306)
(-0.978259 0.128556 0.162735)
(-0.9204 0.242362 0.306797)
(-0.976474 0.164898 0.138953)
(-0.932565 0.276272 0.232372)
(0.97777 0.193147 0.0816145)
(0.981042 0.193793 9.73019e-06)
(0.981047 0.193771 0)
(0.981042 0.193793 9.73019e-06)
(0.981047 0.193771 0)
(0.977785 0.193127 -0.0814801)
(0.843339 0.333123 -0.421674)
(0.95281 0.188182 -0.238203)
(0.395124 0.468269 -0.790317)
(0.753345 0.33522 -0.565773)
(-0.96819 0.191488 0.16106)
(-0.932471 0.276245 0.232781)
(0.994362 0.06616 0.0828702)
(0.997793 0.0663961 0)
(0.84334 0.333124 -0.42167)
(0.953063 0.187688 -0.237578)
(0.843339 0.333123 -0.421674)
(0.84334 0.333124 -0.42167)
(0.842935 0.334398 -0.421472)
(0.952763 0.188436 -0.238191)
(0.421632 0.333114 -0.843363)
(0.422904 0.332908 -0.842807)
(-0 -0.0253356 -0.999679)
(-0.0480491 -0.0253141 -0.998524)
(-0 -0.0253356 -0.999679)
(0.0360657 -0.0253269 -0.999028)
(-0.983583 0.111868 0.141599)
(-0.987451 0.0979571 0.123876)
(-0.920396 0.242381 0.306795)
(0.98745 0.097965 0.123876)
(-0.987343 0.0979545 0.124731)
(0.987344 0.0979465 0.124731)
(0.977788 0.193105 0.081489)
(0.977793 0.193083 -0.0814811)
(-0.990196 0.0982294 -0.0993165)
(-0.98745 0.097965 -0.123876)
(0.870884 0.22793 -0.435442)
(0.962578 0.125964 -0.23995)
(0.888325 0.116598 -0.444167)
(0.888361 0.116265 -0.444181)
(0.518224 -0.0341205 0.854564)
(0.767878 -0.025552 0.640087)
(-0.0359264 -0.0851777 -0.995718)
(-0.165532 -0.0840492 -0.982616)
(0.0479097 -0.0851348 -0.995217)
(0.165513 -0.0840495 -0.98262)
(-0.97648 0.163475 0.140576)
(-0.93133 0.275907 0.237699)
(0.977084 0.161389 0.138782)
(-0.981835 0.162174 0.098488)
(0.980896 0.164215 0.104293)
(-0.994802 0.0986786 0.0251387)
(0.994801 0.0986866 0.0251387)
(-0.994243 0.0986312 0.0418676)
(0.994244 0.0986232 0.0418677)
(0.994352 0.0661541 0.0829885)
(-0.991703 0.0983712 -0.0827576)
(0.996914 0.0663324 -0.0419801)
(-0.994801 0.0986866 -0.0251387)
(-0.980896 0.164215 -0.104293)
(-0.977084 0.161389 -0.138782)
(0.831491 -0.0368783 0.554312)
(0.831404 -0.0368914 0.554443)
(-0.98745 0.0979647 0.123876)
(0.987451 0.0979571 0.123876)
(-0.987344 0.0979465 0.124731)
(0.987343 0.0979542 0.124731)
(-0.983191 0.168283 0.0708299)
(0.983631 0.166107 0.0698486)
(-0.982717 0.165952 0.0820178)
(0.977771 0.193146 0.0816046)
(0.983179 0.168281 0.0709978)
(-0.983179 0.168281 -0.0709978)
(0.977785 0.193126 -0.0814802)
(-0.98363 0.166106 -0.0698548)
(-0.990194 0.0982369 -0.0993263)
(-0.987451 0.0979571 -0.123876)
(0.843339 0.333123 -0.421674)
(0.964048 0.164726 -0.208511)
(0.843345 0.333119 -0.421664)
(0.844044 0.332436 -0.420804)
(0.843339 0.333123 -0.421674)
(0.841957 0.334466 -0.423369)
(-0.806649 -0.0776746 -0.585904)
(-0.551935 -0.108995 -0.826733)
(-0.594511 -0.0902904 -0.799002)
(-0.210375 -0.109784 -0.971437)
(0.31518 -0.106566 -0.94303)
(0.648309 -0.0855003 -0.756561)
(0.163029 0.192007 0.967758)
(0.0986439 0.193669 0.976095)
(-0.955389 0.213601 0.203977)
(-0.920435 0.242322 0.306724)
(-0.920396 0.24238 0.306796)
(0.954296 0.216141 0.206402)
(-0.970664 0.219848 0.0973576)
(0.966635 0.216115 0.137514)
(-0.9948 0.098694 0.0251385)
(0.994801 0.0986862 0.0251385)
(-0.994243 0.0986309 0.0418676)
(0.994242 0.0986386 0.0418676)
(-0.9917 0.0983864 -0.0827673)
(-0.994801 0.0986862 -0.0251385)
(-0.966635 0.216115 -0.137514)
(-0.954296 0.216141 -0.206402)
(0.809594 0.425082 -0.404801)
(0.954296 0.216141 -0.206402)
(0.870878 0.227975 -0.43543)
(0.871349 0.228103 -0.434418)
(0.87074 0.228606 -0.435374)
(0.869678 0.228959 -0.437308)
(-0.805616 -0.0926179 -0.585153)
(-0.513841 -0.134123 -0.847336)
(-0.650497 -0.0346212 -0.758719)
(-0.518132 -0.0389811 -0.854412)
(0.211462 -0.0445529 -0.97637)
(0.62426 -0.0356046 -0.780405)
(0.301373 0.306961 0.902745)
(0.260031 0.309046 0.914808)
(-0.952786 0.187762 0.23863)
(-0.91988 0.242245 0.308445)
(-0.968906 0.153385 0.194148)
(-0.920395 0.24238 0.306798)
(-0.983618 0.166146 0.0699307)
(0.983203 0.168243 0.070747)
(-0.982356 0.168098 0.0819775)
(0.983606 0.166144 0.0701128)
(-0.983606 0.166144 -0.0701129)
(-0.983203 0.168243 -0.0707533)
(0.543759 0.214789 -0.81129)
(0.889261 0.11706 -0.442167)
(0.395201 0.468248 -0.790291)
(0.650161 0.387305 -0.65367)
(0.702561 -0.138171 0.69808)
(0.85018 -0.102222 0.516473)
(-0 -0.0253414 -0.999679)
(-0.0480689 -0.0253043 -0.998523)
(-0 -0.0253414 -0.999679)
(0.0360459 -0.0253171 -0.999029)
(0.163029 0.192 0.967759)
(0.441087 0.174643 0.880308)
(-0.969046 0.152467 0.194176)
(-0.920034 0.242266 0.30797)
(0.843346 0.3331 -0.421677)
(0.952817 0.188159 -0.238192)
(0.543761 0.214773 -0.811293)
(0.68151 0.269179 -0.680504)
(0.543762 0.214767 -0.811294)
(0.881698 0.174381 -0.438406)
(0.16301 0.192 -0.967762)
(0.441087 0.174643 -0.880308)
(0.831491 -0.0368783 0.554312)
(0.831404 -0.0368914 0.554443)
(-0.0359461 -0.0851842 -0.995717)
(-0.165512 -0.0840713 -0.982618)
(0.04789 -0.0851415 -0.995217)
(0.165531 -0.0840711 -0.982615)
(0.301582 0.305062 0.903319)
(0.476347 0.282972 0.832479)
(-0.978181 0.128785 0.163024)
(-0.920399 0.242362 0.3068)
(0.870065 0.231798 -0.435037)
(0.96219 0.127806 -0.240534)
(0.436447 0.23027 -0.869764)
(0.545002 0.215269 -0.810328)
(0.54376 0.214783 -0.811291)
(0.696795 0.185118 -0.692971)
(0.163029 0.192007 0.967758)
(0.441596 0.174614 0.880059)
(-0.97804 0.129882 0.163001)
(-0.921299 0.2426 0.303896)
(-0.987451 0.0979572 0.123876)
(-0.994242 0.0986387 0.0418676)
(-0.991702 0.0983789 -0.0827576)
(-0.98745 0.0979649 -0.123876)
(0.544923 0.215237 -0.81039)
(0.543605 0.216577 -0.810918)
(0.301382 0.306867 0.902774)
(0.4742 0.281697 0.834135)
(-0.975915 0.166939 0.140433)
(-0.98272 0.165938 0.0820176)
(-0.983197 0.168185 -0.0709742)
(-0.976506 0.164889 -0.138733)
(-0.699957 -0.0933487 -0.708058)
(-0.554031 -0.109409 -0.825275)
(-0 -0.0852394 -0.99636)
(0.100186 -0.0848029 -0.991348)
(0.163028 0.192015 0.967756)
(0.441596 0.174608 0.88006)
(-0.98745 0.0979649 0.123875)
(0.98745 0.0979649 0.123875)
(-0.994243 0.098631 0.0418676)
(0.994243 0.098631 0.0418676)
(-0.9917 0.0983866 -0.0827675)
(-0.987451 0.0979572 -0.123876)
(0.843341 0.333121 -0.421671)
(0.68159 0.269231 -0.680405)
(-0.696146 -0.139572 -0.704202)
(-0.549347 -0.162448 -0.819651)
(-1.70662e-05 -0.509713 -0.860345)
(0.397092 -0.467808 -0.789603)
(0.114325 -0.0846739 -0.989828)
(0.165513 -0.0840495 -0.98262)
(0.302177 0.299135 0.905101)
(0.630992 0.244905 0.736118)
(-0.796278 0.308363 0.520437)
(-0.395124 0.468264 0.79032)
(0.143432 0.504478 0.851428)
(0.864405 0.256296 0.432568)
(-0.965563 0.159559 0.205496)
(0.965563 0.159559 0.205496)
(-0.982948 0.164572 0.082027)
(0.983887 0.164729 0.0694997)
(-0.984294 0.162654 -0.0686243)