/*--------------------------------*- C++ -*----------------------------------*\
| =========                 |                                                 |
| \\      /  F ield         | OpenFOAM: The Open Source CFD Toolbox           |
|  \\    /   O peration     | Version:  2306                                  |
|   \\  /    A nd           | Website:  www.openfoam.com                      |
|    \\/     M anipulation  |                                                 |
\*---------------------------------------------------------------------------*/
FoamFile
{
    version     2.0;
    format      ascii;
    arch        "LSB;label=32;scalar=64";
    class       extendedFeatureEdgeMesh;
    location    "constant/extendedFeatureEdgeMesh";
    object      cylinder.extendedFeatureEdgeMesh;
}
// * * * * * * * * * * * * * * * * * * * * * * * * * * * * * * * * * * * * * //

// points

2701
(
(-49.5 -0.548608 49.5)
(48.5 -0.548618 49.5)
(-49.5 -0.548622 -48.5)
(48.5 -0.548622 -48.5)
(-49.5 10.5462 34.5)
(-49.5 13.4514 -11.9854)
(-48.6713 45.4514 42.5)
(-47.5 45.3594 41.5)
(-49.5 46.039 41.5)
(-49.5 47.4514 49.5001)
(-49.5001 47.4514 49.5)
(48.5 47.4514 49.5009)
(48.5009 47.4514 49.5)
(-49.5 47.4514 47.5)
(-49.5 47.4514 44.1056)
(-35.5 47.4514 -2.9833)
(-49.5 47.4514 -29.0013)
(48.5 47.4514 -31.5)
(48.5 47.4514 -34.5)
(48.5 47.4514 -44.5)
(-49.5001 47.4514 -48.5)
(48.5 47.4514 -48.5)
(-49.5 47.4514 -48.5001)
(-49.5 47.4515 49.5)
(48.5 47.4523 49.5)
(-49.5 47.4515 -48.5)
(-14.3158 13.4514 31.5)
(12.0321 13.4514 31.5)
(11.8134 14.4514 31.5)
(-48.5 27.4514 -25.5163)
(-48.5 44.447 43.5)
(-47.5 45.0536 44.5)
(-46.5 45.3681 44.5)
(-46.4606 45.4514 44.5)
(-46.5 44.9125 43.5)
(-46.3689 45.4514 43.5)
(48.5 10.8875 31.5)
(-34.5 29.4514 -24.8236)
(48.5 33.4514 12.4188)
(48.5 33.9275 36.5)
(40.5 34.4514 15.5503)
(48.5 34.4514 12.4368)
(31.0693 42.4514 36.5)
(31.0693 43.4514 36.5)
(-48.5 44.4514 40.9824)
(-48.5 45.3943 44.5)
(-47.5 44.6647 43.5)
(-48.5 44.8701 42.5)
(-47.5 45.3516 42.5)
(-47.4665 45.4514 42.5)
(-48.5 45.2588 41.5)
(-47.3857 45.4514 41.5)
(-49.2712 46.4514 43.5)
(-46.9383 46.4514 43.5)
(-48.5 47.4514 44.7667)
(-47.4247 47.4514 44.5)
(-19.5 47.4514 38.3057)
(-21.5065 47.4514 36.5)
(-14.7065 47.4514 36.5)
(11.4544 47.4514 36.5)
(33.9027 47.4514 36.5)
(-48.5 47.4514 -29.5536)
(-48.5 -0.548608 49.5)
(-49.5 -0.548608 48.5)
(-47.5 -0.548618 49.5)
(-46.5 -0.548618 49.5)
(-45.5 -0.548618 49.5)
(-44.5 -0.548608 49.5)
(-43.5 -0.548608 49.5)
(-42.5 -0.548608 49.5)
(-41.5 -0.548608 49.5)
(-40.5 -0.548608 49.5)
(-39.5 -0.548608 49.5)
(-38.5 -0.548618 49.5)
(-37.5 -0.548618 49.5)
(-36.5 -0.548608 49.5)
(-35.5 -0.548618 49.5)
(-34.5 -0.548618 49.5)
(-33.5 -0.548608 49.5)
(-32.5 -0.548618 49.5)
(-31.5 -0.548618 49.5)
(-30.5 -0.548618 49.5)
(-29.5 -0.548618 49.5)
(-28.5 -0.548618 49.5)
(-27.5 -0.548618 49.5)
(-26.5 -0.548618 49.5)
(-25.5 -0.548618 49.5)
(-24.5 -0.548618 49.5)
(-23.5 -0.548618 49.5)
(-22.5 -0.548618 49.5)
(-21.5 -0.548618 49.5)
(-20.5 -0.548618 49.5)
(-19.5 -0.548618 49.5)
(-18.5 -0.548618 49.5)
(-17.5 -0.548618 49.5)
(-16.5 -0.548618 49.5)
(-15.5 -0.548618 49.5)
(-14.5 -0.548618 49.5)
(-13.5 -0.548618 49.5)
(-12.5 -0.548618 49.5)
(-11.5 -0.548608 49.5)
(-10.5 -0.548618 49.5)
(-9.5 -0.548618 49.5)
(-8.5 -0.548618 49.5)
(-7.5 -0.548618 49.5)
(-6.5 -0.548618 49.5)
(-5.5 -0.548618 49.5)
(-4.5 -0.548618 49.5)
(-3.5 -0.548618 49.5)
(-2.5 -0.548618 49.5)
(-1.5 -0.548618 49.5)
(-0.5 -0.548618 49.5)
(0.5 -0.548618 49.5)
(1.5 -0.548618 49.5)
(2.5 -0.548608 49.5)
(3.5 -0.548618 49.5)
(4.5 -0.548608 49.5)
(5.5 -0.548618 49.5)
(6.5 -0.548618 49.5)
(7.5 -0.548618 49.5)
(8.5 -0.548618 49.5)
(9.5 -0.548618 49.5)
(10.5 -0.548618 49.5)
(11.5 -0.548618 49.5)
(12.5 -0.548618 49.5)
(13.5 -0.548618 49.5)
(14.5 -0.548618 49.5)
(15.5 -0.548618 49.5)
(16.5 -0.548618 49.5)
(17.5 -0.548618 49.5)
(18.5 -0.548618 49.5)
(19.5 -0.548608 49.5)
(20.5 -0.548618 49.5)
(21.5 -0.548618 49.5)
(22.5 -0.548618 49.5)
(23.5 -0.548618 49.5)
(24.5 -0.548608 49.5)
(25.5 -0.548618 49.5)
(26.5 -0.548608 49.5)
(27.5 -0.548618 49.5)
(28.5 -0.548618 49.5)
(29.5 -0.548608 49.5)
(30.5 -0.548608 49.5)
(31.5 -0.548608 49.5)
(32.5 -0.548608 49.5)
(33.5 -0.548608 49.5)
(34.5 -0.548608 49.5)
(35.5 -0.548608 49.5)
(36.5 -0.548608 49.5)
(37.5 -0.548608 49.5)
(38.5 -0.548608 49.5)
(39.5 -0.548608 49.5)
(40.5 -0.548608 49.5)
(41.5 -0.548608 49.5)
(42.5 -0.548608 49.5)
(43.5 -0.548608 49.5)
(44.5 -0.548608 49.5)
(45.5 -0.548608 49.5)
(46.5 -0.548608 49.5)
(47.5 -0.548608 49.5)
(48.5 -0.548608 48.5)
(-49.5 -0.548608 47.5)
(48.5 -0.548618 47.5)
(-49.5 -0.548608 46.5)
(48.5 -0.548608 46.5)
(-49.5 -0.548608 45.5)
(48.5 -0.548618 45.5)
(-49.5 -0.548608 44.5)
(48.5 -0.548618 44.5)
(-49.5 -0.548608 43.5)
(48.5 -0.548608 43.5)
(-49.5 -0.548618 42.5)
(48.5 -0.548618 42.5)
(-49.5 -0.548608 41.5)
(48.5 -0.548608 41.5)
(-49.5 -0.548608 40.5)
(48.5 -0.548618 40.5)
(-49.5 -0.548608 39.5)
(48.5 -0.548608 39.5)
(-49.5 -0.548608 38.5)
(48.5 -0.548608 38.5)
(-49.5 -0.548608 37.5)
(48.5 -0.548608 37.5)
(-49.5 -0.548618 36.5)
(48.5 -0.548618 36.5)
(-49.5 -0.548608 35.5)
(48.5 -0.548618 35.5)
(-49.5 -0.548608 34.5)
(48.5 -0.548618 34.5)
(-49.5 -0.548608 33.5)
(48.5 -0.548618 33.5)
(-49.5 -0.548608 32.5)
(48.5 -0.548608 32.5)
(-49.5 -0.548618 31.5)
(48.5 -0.548618 31.5)
(-49.5 -0.548618 30.5)
(48.5 -0.548618 30.5)
(-49.5 -0.548608 29.5)
(48.5 -0.548608 29.5)
(-49.5 -0.548609 28.5)
(48.5 -0.548609 28.5)
(-49.5 -0.548619 27.5)
(48.5 -0.548609 27.5)
(-49.5 -0.548609 26.5)
(48.5 -0.548609 26.5)
(-49.5 -0.548609 25.5)
(48.5 -0.548619 25.5)
(-49.5 -0.548609 24.5)
(48.5 -0.548609 24.5)
(-49.5 -0.548609 23.5)
(48.5 -0.548609 23.5)
(-49.5 -0.548609 22.5)
(48.5 -0.548609 22.5)
(-49.5 -0.548609 21.5)
(48.5 -0.548609 21.5)
(-49.5 -0.548609 20.5)
(48.5 -0.548609 20.5)
(-49.5 -0.548609 19.5)
(48.5 -0.548619 19.5)
(-49.5 -0.548609 18.5)
(48.5 -0.548609 18.5)
(-49.5 -0.548609 17.5)
(48.5 -0.548619 17.5)
(-49.5 -0.548609 16.5)
(48.5 -0.548619 16.5)
(-49.5 -0.548619 15.5)
(48.5 -0.548619 15.5)
(-49.5 -0.548609 14.5)
(48.5 -0.548619 14.5)
(-49.5 -0.548609 13.5)
(48.5 -0.548609 13.5)
(-49.5 -0.548609 12.5)
(48.5 -0.548619 12.5)
(-49.5 -0.548609 11.5)
(48.5 -0.548619 11.5)
(-49.5 -0.548609 10.5)
(48.5 -0.548619 10.5)
(-49.5 -0.548609 9.5)
(48.5 -0.548619 9.5)
(-49.5 -0.548619 8.5)
(48.5 -0.548619 8.5)
(-49.5 -0.548609 7.5)
(48.5 -0.548619 7.5)
(-49.5 -0.548609 6.5)
(48.5 -0.54862 6.5)
(-49.5 -0.548609 5.5)
(48.5 -0.548609 5.5)
(-49.5 -0.54861 4.5)
(48.5 -0.54862 4.5)
(-49.5 -0.54861 3.5)
(48.5 -0.54862 3.5)
(-49.5 -0.54861 2.5)
(48.5 -0.54862 2.5)
(-49.5 -0.54861 1.5)
(48.5 -0.54862 1.5)
(-49.5 -0.54861 0.5)
(48.5 -0.54862 0.5)
(-49.5 -0.54861 -0.5)
(48.5 -0.54862 -0.5)
(-49.5 -0.54861 -1.5)
(48.5 -0.54862 -1.5)
(-49.5 -0.54861 -2.5)
(48.5 -0.54862 -2.5)
(-49.5 -0.54861 -3.5)
(48.5 -0.54862 -3.5)
(-49.5 -0.54861 -4.5)
(48.5 -0.54862 -4.5)
(-49.5 -0.54861 -5.5)
(48.5 -0.54862 -5.5)
(-49.5 -0.54861 -6.5)
(48.5 -0.54862 -6.5)
(-49.5 -0.54861 -7.5)
(48.5 -0.54862 -7.5)
(-49.5 -0.54861 -8.5)
(48.5 -0.54861 -8.5)
(-49.5 -0.54861 -9.5)
(48.5 -0.54862 -9.5)
(-49.5 -0.54861 -10.5)
(48.5 -0.54862 -10.5)
(-49.5 -0.54862 -11.5)
(48.5 -0.54862 -11.5)
(-49.5 -0.54861 -12.5)
(48.5 -0.54862 -12.5)
(-49.5 -0.54861 -13.5)
(48.5 -0.54862 -13.5)
(-49.5 -0.54861 -14.5)
(48.5 -0.54862 -14.5)
(-49.5 -0.54862 -15.5)
(48.5 -0.54862 -15.5)
(-49.5 -0.548611 -16.5)
(48.5 -0.548621 -16.5)
(-49.5 -0.548611 -17.5)
(48.5 -0.548621 -17.5)
(-49.5 -0.548621 -18.5)
(48.5 -0.548621 -18.5)
(-49.5 -0.548621 -19.5)
(48.5 -0.548621 -19.5)
(-49.5 -0.548611 -20.5)
(48.5 -0.548621 -20.5)
(-49.5 -0.548611 -21.5)
(48.5 -0.548621 -21.5)
(-49.5 -0.548611 -22.5)
(48.5 -0.548621 -22.5)
(-49.5 -0.548621 -23.5)
(48.5 -0.548621 -23.5)
(-49.5 -0.548621 -24.5)
(48.5 -0.548611 -24.5)
(-49.5 -0.548621 -25.5)
(48.5 -0.548621 -25.5)
(-49.5 -0.548621 -26.5)
(48.5 -0.548621 -26.5)
(-49.5 -0.548621 -27.5)
(48.5 -0.548621 -27.5)
(-49.5 -0.548611 -28.5)
(48.5 -0.548621 -28.5)
(-49.5 -0.548621 -29.5)
(48.5 -0.548621 -29.5)
(-49.5 -0.548621 -30.5)
(48.5 -0.548621 -30.5)
(-49.5 -0.548621 -31.5)
(48.5 -0.548611 -31.5)
(-49.5 -0.548621 -32.5)
(48.5 -0.548621 -32.5)
(-49.5 -0.548621 -33.5)
(48.5 -0.548621 -33.5)
(-49.5 -0.548611 -34.5)
(48.5 -0.548621 -34.5)
(-49.5 -0.548621 -35.5)
(48.5 -0.548621 -35.5)
(-49.5 -0.548621 -36.5)
(48.5 -0.548611 -36.5)
(-49.5 -0.548621 -37.5)
(48.5 -0.548611 -37.5)
(-49.5 -0.548611 -38.5)
(48.5 -0.548621 -38.5)
(-49.5 -0.548612 -39.5)
(48.5 -0.548622 -39.5)
(-49.5 -0.548622 -40.5)
(48.5 -0.548622 -40.5)
(-49.5 -0.548622 -41.5)
(48.5 -0.548622 -41.5)
(-49.5 -0.548622 -42.5)
(48.5 -0.548622 -42.5)
(-49.5 -0.548622 -43.5)
(48.5 -0.548622 -43.5)
(-49.5 -0.548622 -44.5)
(48.5 -0.548622 -44.5)
(-49.5 -0.548622 -45.5)
(48.5 -0.548622 -45.5)
(-49.5 -0.548622 -46.5)
(48.5 -0.548622 -46.5)
(-49.5 -0.548622 -47.5)
(48.5 -0.548622 -47.5)
(-48.5 -0.548622 -48.5)
(-47.5 -0.548622 -48.5)
(-46.5 -0.548612 -48.5)
(-45.5 -0.548622 -48.5)
(-44.5 -0.548622 -48.5)
(-43.5 -0.548622 -48.5)
(-42.5 -0.548622 -48.5)
(-41.5 -0.548622 -48.5)
(-40.5 -0.548622 -48.5)
(-39.5 -0.548622 -48.5)
(-38.5 -0.548622 -48.5)
(-37.5 -0.548622 -48.5)
(-36.5 -0.548622 -48.5)
(-35.5 -0.548622 -48.5)
(-34.5 -0.548622 -48.5)
(-33.5 -0.548622 -48.5)
(-32.5 -0.548622 -48.5)
(-31.5 -0.548622 -48.5)
(-30.5 -0.548622 -48.5)
(-29.5 -0.548622 -48.5)
(-28.5 -0.548622 -48.5)
(-27.5 -0.548622 -48.5)
(-26.5 -0.548622 -48.5)
(-25.5 -0.548622 -48.5)
(-24.5 -0.548622 -48.5)
(-23.5 -0.548622 -48.5)
(-22.5 -0.548622 -48.5)
(-21.5 -0.548622 -48.5)
(-20.5 -0.548622 -48.5)
(-19.5 -0.548622 -48.5)
(-18.5 -0.548622 -48.5)
(-17.5 -0.548622 -48.5)
(-16.5 -0.548622 -48.5)
(-15.5 -0.548622 -48.5)
(-14.5 -0.548622 -48.5)
(-13.5 -0.548622 -48.5)
(-12.5 -0.548622 -48.5)
(-11.5 -0.548622 -48.5)
(-10.5 -0.548622 -48.5)
(-9.5 -0.548622 -48.5)
(-8.5 -0.548622 -48.5)
(-7.5 -0.548622 -48.5)
(-6.5 -0.548622 -48.5)
(-5.5 -0.548622 -48.5)
(-4.5 -0.548622 -48.5)
(-3.5 -0.548622 -48.5)
(-2.5 -0.548622 -48.5)
(-1.5 -0.548622 -48.5)
(-0.5 -0.548622 -48.5)
(0.5 -0.548622 -48.5)
(1.5 -0.548622 -48.5)
(2.5 -0.548622 -48.5)
(3.5 -0.548622 -48.5)
(4.5 -0.548622 -48.5)
(5.5 -0.548622 -48.5)
(6.5 -0.548622 -48.5)
(7.5 -0.548622 -48.5)
(8.5 -0.548622 -48.5)
(9.5 -0.548622 -48.5)
(10.5 -0.548622 -48.5)
(11.5 -0.548622 -48.5)
(12.5 -0.548622 -48.5)
(13.5 -0.548622 -48.5)
(14.5 -0.548622 -48.5)
(15.5 -0.548622 -48.5)
(16.5 -0.548622 -48.5)
(17.5 -0.548622 -48.5)
(18.5 -0.548622 -48.5)
(19.5 -0.548622 -48.5)
(20.5 -0.548622 -48.5)
(21.5 -0.548622 -48.5)
(22.5 -0.548622 -48.5)
(23.5 -0.548622 -48.5)
(24.5 -0.548622 -48.5)
(25.5 -0.548622 -48.5)
(26.5 -0.548622 -48.5)
(27.5 -0.548622 -48.5)
(28.5 -0.548622 -48.5)
(29.5 -0.548622 -48.5)
(30.5 -0.548622 -48.5)
(31.5 -0.548622 -48.5)
(32.5 -0.548622 -48.5)
(33.5 -0.548622 -48.5)
(34.5 -0.548622 -48.5)
(35.5 -0.548622 -48.5)
(36.5 -0.548622 -48.5)
(37.5 -0.548622 -48.5)
(38.5 -0.548622 -48.5)
(39.5 -0.548622 -48.5)
(40.5 -0.548622 -48.5)
(41.5 -0.548622 -48.5)
(42.5 -0.548622 -48.5)
(43.5 -0.548622 -48.5)
(44.5 -0.548622 -48.5)
(45.5 -0.548622 -48.5)
(46.5 -0.548622 -48.5)
(47.5 -0.548622 -48.5)
(-49.5 0.451392 49.5002)
(-49.5002 0.451392 49.5)
(48.5 0.451392 49.5005)
(48.5005 0.451392 49.5)
(-49.5005 0.451388 -48.5)
(48.5006 0.451388 -48.5)
(-49.5 0.451388 -48.5005)
(48.5 0.451388 -48.5006)
(-49.5 1.45139 49.5002)
(-49.5002 1.45139 49.5)
(48.5 1.45139 49.5006)
(48.5006 1.45139 49.5)
(-49.5005 1.45139 -48.5)
(48.5006 1.45139 -48.5)
(-49.5 1.45139 -48.5005)
(48.5 1.45139 -48.5006)
(-49.5 2.45139 49.5003)
(-49.5003 2.45139 49.5)
(48.5 2.45139 49.5006)
(48.5006 2.45139 49.5)
(-49.5006 2.45139 -48.5)
(48.5006 2.45139 -48.5)
(-49.5 2.45139 -48.5006)
(48.5 2.45139 -48.5006)
(-49.5 3.45139 49.5003)
(-49.5003 3.45139 49.5)
(48.5 3.45139 49.5007)
(48.5007 3.45139 49.5)
(-49.5006 3.45139 -48.5)
(48.5007 3.45139 -48.5)
(-49.5 3.45139 -48.5006)
(48.5 3.45139 -48.5007)
(-49.5 4.45139 49.5003)
(-49.5003 4.45139 49.5)
(48.5 4.45139 49.5007)
(48.5007 4.45139 49.5)
(-49.5006 4.45139 -48.5)
(48.5007 4.45139 -48.5)
(-49.5 4.45139 -48.5006)
(48.5 4.45139 -48.5007)
(-49.5 5.45139 49.5003)
(-49.5003 5.45139 49.5)
(48.5 5.45139 49.5008)
(48.5008 5.45139 49.5)
(-49.5007 5.45139 -48.5)
(48.5007 5.45139 -48.5)
(-49.5 5.45139 -48.5007)
(48.5 5.45139 -48.5007)
(-49.5 6.45139 49.5003)
(-49.5003 6.45139 49.5)
(48.5 6.45139 49.5008)
(48.5008 6.45139 49.5)
(-49.5007 6.45139 -48.5)
(48.5008 6.45139 -48.5)
(-49.5 6.45139 -48.5007)
(48.5 6.45139 -48.5008)
(-49.5 7.45139 49.5003)
(-49.5003 7.45139 49.5)
(48.5 7.45139 49.5008)
(48.5008 7.45139 49.5)
(-49.5007 7.45139 -48.5)
(48.5008 7.45139 -48.5)
(-49.5 7.45139 -48.5007)
(48.5 7.45139 -48.5008)
(-49.5 8.45139 49.5003)
(-49.5003 8.45139 49.5)
(48.5 8.45139 49.5009)
(48.5009 8.45139 49.5)
(-49.5008 8.45139 -48.5)
(48.5008 8.45139 -48.5)
(-49.5 8.45139 -48.5008)
(48.5 8.45139 -48.5008)
(-49.5 9.45139 49.5004)
(-49.5004 9.45139 49.5)
(48.5 9.45139 49.5009)
(48.5009 9.45139 49.5)
(-49.5008 9.45139 -48.5)
(48.5009 9.45139 -48.5)
(-49.5 9.45139 -48.5008)
(48.5 9.45139 -48.5009)
(-49.5 10.4514 49.5004)
(-49.5004 10.4514 49.5)
(48.5 10.4514 49.5009)
(48.5009 10.4514 49.5)
(-49.4938 10.4514 33.5)
(-49.4193 10.4514 32.5)
(-49.5 10.4514 23.55)
(-49.5 10.4405 23.5)
(-49.5 10.0787 22.5)
(-49.5 9.90969 21.5)
(-49.5 9.81579 20.5)
(-49.5 9.98909 19.5)
(-49.5 10.1351 18.5)
(-49.5 10.2847 17.5)
(-49.5 10.3099 16.5)
(-49.5 10.087 15.5)
(-49.5 9.96829 14.5)
(-49.5 9.80479 13.5)
(-49.5 10.1147 12.5)
(-49.5 10.4514 9.8125)
(-49.5 10.3982 9.5)
(-49.5 10.2455 8.5)
(-49.5 10.2533 7.5)
(-49.5 10.3239 6.5)
(-49.5 10.4514 5.85)
(-49.5 10.4514 -2.6875)
(-49.5 10.3187 -3.5)
(-49.5 10.2282 -4.5)
(-49.5 10.2605 -5.5)
(-49.5 10.2879 -6.5)
(-49.5 10.4514 -7.35)
(-49.5008 10.4514 -48.5)
(48.5009 10.4514 -48.5)
(-49.5 10.4514 -48.5008)
(48.5 10.4514 -48.5009)
(-49.5 11.4514 49.5004)
(-49.5004 11.4514 49.5)
(48.5 11.4514 49.5009)
(48.5009 11.4514 49.5)
(-49.5 11.4514 35.5088)
(-49.5 11.4391 35.5)
(-49.5 10.4514 33.5833)
(48.5 11.4514 32.1303)
(48.5 10.9059 30.5)
(-49.5 10.4514 30.1875)
(-49.5 10.5462 29.5)
(48.5 10.9059 29.5)
(-49.5 10.621 28.5)
(48.5 10.797 28.5)
(-49.5 10.7014 27.5)
(48.5 10.7434 27.5)
(-49.5 10.7014 26.5)
(48.5 10.7923 26.5)
(-49.5 10.7014 25.5)
(48.5 11.0042 25.5)
(-49.5 10.621 24.5)
(48.5 11.1779 24.5)
(48.5 11.3079 23.5)
(48.5 11.4514 22.5216)
(-49.5 10.4514 11.1111)
(-49.5 10.5462 10.5)
(-49.5 10.5107 5.5)
(-49.5 10.621 4.5)
(-49.5 10.7014 3.5)
(-49.5 10.7014 2.5)
(-49.5 10.7014 1.5)
(-49.5 10.7014 0.5)
(-49.5 10.7014 -0.5)
(-49.5 10.621 -1.5)
(-49.5 10.4764 -2.5)
(-49.5 10.4764 -7.5)
(-49.5 10.5986 -8.5)
(-49.2237 11.4514 -9.5)
(-49.5 11.4514 -10.4676)
(-49.5009 11.4514 -48.5)
(48.5009 11.4514 -48.5)
(-49.5 11.4514 -48.5008)
(48.5 11.4514 -48.5009)
(-49.5 12.4514 49.5004)
(-49.5004 12.4514 49.5)
(48.5 12.4514 49.5009)
(48.5009 12.4514 49.5)
(-49.5 12.4514 36.55)
(-49.5 12.3755 36.5)
(48.5 12.4514 33.1826)
(48.5 11.7792 32.5)
(48.5 11.4537 22.5)
(48.5 11.6923 21.5)
(48.5 12.1535 20.5)
(48.5 12.4514 19.9949)
(-49.5 11.4654 -10.5)
(-49.5 12.1674 -11.5)
(-49.5 12.4514 -11.6753)
(-49.5009 12.4514 -48.5)
(48.501 12.4514 -48.5)
(-49.5 12.4514 -48.5009)
(48.5 12.4514 -48.501)
(-49.5 13.4514 49.5004)
(-49.5004 13.4514 49.5)
(48.5 13.4514 49.5008)
(48.5008 13.4514 49.5)
(-49.5 13.4514 36.8859)
(48.5 13.4514 33.8821)
(48.5 12.9227 33.5)
(48.5 12.8593 19.5)
(48.5 13.4514 18.8401)
(-49.5009 13.4514 -48.5)
(48.501 13.4514 -48.5)
(-49.5 13.4514 -48.5009)
(48.5 13.4514 -48.501)
(-49.5 14.4514 49.5004)
(-49.5004 14.4514 49.5)
(48.5 14.4514 49.5008)
(48.5008 14.4514 49.5)
(-49.5 14.4514 36.9803)
(48.5 14.4514 34.2076)
(48.5 13.9581 18.5)
(48.5 14.4514 18.1281)
(-49.5 14.4514 -11.7099)
(-49.5009 14.4514 -48.5)
(48.501 14.4514 -48.5)
(-49.5 14.4514 -48.5009)
(48.5 14.4514 -48.501)
(-49.5 15.4514 49.5004)
(-49.5004 15.4514 49.5)
(48.5 15.4514 49.5009)
(48.5009 15.4514 49.5)
(-49.5 15.4514 36.9175)
(48.5 15.4514 34.3843)
(48.5 15.4514 17.9768)
(-49.5 14.9589 -11.5)
(-49.5 15.4514 -11.2835)
(-49.5009 15.4514 -48.5)
(48.501 15.4514 -48.5)
(-49.5 15.4514 -48.5009)
(48.5 15.4514 -48.501)
(-49.5 16.4514 49.5004)
(-49.5004 16.4514 49.5)
(48.5 16.4514 49.5009)
(48.5009 16.4514 49.5)
(-49.5 16.4514 37.0284)
(48.5 16.4514 34.5579)
(48.5 16.1076 34.5)
(48.5 16.4514 17.8928)
(-49.5 16.4514 -10.9495)
(-49.5008 16.4514 -48.5)
(48.5009 16.4514 -48.5)
(-49.5 16.4514 -48.5008)
(48.5 16.4514 -48.5009)
(-49.5 17.4514 49.5004)
(-49.5004 17.4514 49.5)
(48.5 17.4514 49.5009)
(48.5009 17.4514 49.5)
(-49.5 17.4514 37.2384)
(48.5 17.4514 34.8114)
(48.5 17.4514 17.7562)
(-49.5 17.4514 -10.5537)
(48.5005 17.4514 -37.5)
(48.5004 16.4514 -37.5)
(-49.5008 17.4514 -48.5)
(48.5009 17.4514 -48.5)
(-49.5 17.4514 -48.5008)
(48.5 17.4514 -48.5009)
(-49.5 18.4514 49.5004)
(-49.5004 18.4514 49.5)
(48.5 18.4514 49.5009)
(48.5009 18.4514 49.5)
(-49.5 18.4514 37.4671)
(48.5 18.4514 35.0088)
(48.5 18.4452 17.5)
(48.5 18.4514 17.4985)
(-49.5 17.6305 -10.5)
(-49.5 18.4514 -10.2606)
(48.5005 18.4514 -37.5)
(-49.5008 18.4514 -48.5)
(48.5009 18.4514 -48.5)
(-49.5 18.4514 -48.5008)
(48.5 18.4514 -48.5009)
(-49.5 19.4514 49.5004)
(-49.5004 19.4514 49.5)
(48.5 19.4514 49.5009)
(48.5009 19.4514 49.5)
(-49.5 19.4514 37.7034)
(-49.5 18.5808 37.5)
(48.5 19.4514 35.3073)
(48.5 19.4514 17.2329)
(-49.5 19.4514 -9.9495)
(-49.5007 19.4514 -48.5)
(48.5009 19.4514 -48.5)
(-49.5 19.4514 -48.5007)
(48.5 19.4514 -48.5009)
(-49.5 20.4514 49.5005)
(-49.5005 20.4514 49.5)
(48.5 20.4514 49.5009)
(48.5009 20.4514 49.5)
(-49.5 20.4514 37.9297)
(48.5 20.4514 35.5303)
(48.5 20.3091 35.5)
(48.5 20.4514 17.0265)
(-49.5 20.4514 -9.8003)
(-49.5007 20.4514 -48.5)
(48.5008 20.4514 -48.5)
(-49.5 20.4514 -48.5007)
(48.5 20.4514 -48.5008)
(-49.5 21.4514 49.5005)
(-49.5005 21.4514 49.5)
(48.5 21.4514 49.5009)
(48.5009 21.4514 49.5)
(-49.5 21.4514 38.2384)
(48.5 21.4514 35.8114)
(48.5 21.4514 16.9028)
(-49.5 21.4514 -9.7842)
(-49.5006 21.4514 -48.5)
(48.5008 21.4514 -48.5)
(-49.5 21.4514 -48.5006)
(48.5 21.4514 -48.5008)
(-49.5 22.4514 49.5005)
(-49.5005 22.4514 49.5)
(48.5 22.4514 49.5009)
(48.5009 22.4514 49.5)
(-49.5 22.4514 38.4671)
(48.5 22.4514 35.9733)
(48.5 22.4514 16.7562)
(-49.5 22.4514 -10.0222)
(-49.5006 22.4514 -48.5)
(48.5008 22.4514 -48.5)
(-49.5 22.4514 -48.5006)
(48.5 22.4514 -48.5008)
(-49.5 23.4514 49.5005)
(-49.5005 23.4514 49.5)
(48.5 23.4514 49.5009)
(48.5009 23.4514 49.5)
(-49.5 23.4514 38.6097)
(-49.5 22.5808 38.5)
(48.5 23.4514 36.1287)
(48.5 23.4452 16.5)
(48.5 23.4514 16.4985)
(-49.5 23.3624 -10.5)
(-49.5 23.4514 -10.5569)
(-49.5005 23.4514 -48.5)
(48.5007 23.4514 -48.5)
(-49.5 23.4514 -48.5005)
(48.5 23.4514 -48.5007)
(-49.5 24.4514 49.5005)
(-49.5005 24.4514 49.5)
(48.5 24.4514 49.5008)
(48.5008 24.4514 49.5)
(-49.5 24.4514 38.6852)
(48.5 24.4514 36.3073)
(48.5 24.4514 16.2329)
(-49.5 24.3945 -11.5)
(-49.5 24.4514 -11.5569)
(-49.5005 24.4514 -48.5)
(48.5007 24.4514 -48.5)
(-49.5 24.4514 -48.5005)
(48.5 24.4514 -48.5007)
(-49.5 25.4514 49.5005)
(-49.5005 25.4514 49.5)
(48.5 25.4514 49.5008)
(48.5008 25.4514 49.5)
(-49.5 25.4514 38.817)
(48.5 25.4514 36.5071)
(48.5 25.3091 36.5)
(48.5 25.4514 15.9864)
(-49.5 25.3945 -12.5)
(-49.5 25.4514 -12.5569)
(-49.5004 25.4514 -48.5)
(48.5006 25.4514 -48.5)
(-49.5 25.4514 -48.5005)
(48.5 25.4514 -48.5006)
(-49.5 26.4514 49.5005)
(-49.5005 26.4514 49.5)
(48.5 26.4514 49.5009)
(48.5009 26.4514 49.5)
(-49.5 26.4514 38.9107)
(48.5 26.4514 36.5667)
(48.5 26.4514 15.768)
(-49.5 26.3611 -13.5)
(-49.5 26.4514 -13.6386)
(-49.5 26.4514 -21.0383)
(-49.5 26.2708 -21.5)
(-49.5 25.9588 -22.5)
(-49.5 25.8514 -23.5)
(-49.5 26.1215 -24.5)
(-49.5 26.4514 -24.8792)
(-49.5004 26.4514 -48.5)
(48.5006 26.4514 -48.5)
(-49.5 26.4514 -48.5004)
(48.5 26.4514 -48.5006)
(-49.5 27.4514 49.5005)
(-49.5005 27.4514 49.5)
(48.5 27.4514 49.5009)
(48.5009 27.4514 49.5)
(-49.5 27.4514 39.0775)
(48.5 27.4514 36.6086)
(48.5 27.4456 15.5)
(48.5 27.4514 15.4985)
(-49.5 26.9834 -14.5)
(-49.5 27.2682 -15.5)
(-49.5 27.4514 -16.239)
(-49.5 27.4514 -17.156)
(-49.5 27.4223 -17.5)
(-49.5 27.2451 -18.5)
(-49.5 26.9286 -19.5)
(-49.5 26.6697 -20.5)
(-49.5 27.4514 -25.4354)
(-49.5004 27.4514 -48.5)
(48.5005 27.4514 -48.5)
(-49.5 27.4514 -48.5004)
(48.5 27.4514 -48.5005)
(-49.5 28.4514 49.5005)
(-49.5005 28.4514 49.5)
(48.5 28.4514 49.5009)
(48.5009 28.4514 49.5)
(-49.5 28.4514 39.2453)
(48.5 28.4514 36.6833)
(48.5 28.4514 15.2329)
(-49.5 27.5117 -16.5)
(-49.5 27.8465 -25.5)
(-49.5 28.4514 -25.5751)
(-49.5003 28.4514 -48.5)
(48.5005 28.4514 -48.5)
(-49.5 28.4514 -48.5003)
(48.5 28.4514 -48.5005)
(-49.5 29.4514 49.5004)
(-49.5004 29.4514 49.5)
(48.5 29.4514 49.501)
(48.501 29.4514 49.5)
(-49.5 29.4514 39.4621)
(48.5 29.4514 36.7807)
(48.5 29.4514 15.0265)
(-49.5 29.4514 -25.6652)
(-49.5003 29.4514 -48.5)
(48.5004 29.4514 -48.5)
(-49.5 29.4514 -48.5003)
(48.5 29.4514 -48.5004)
(-49.5 30.4514 49.5004)
(-49.5004 30.4514 49.5)
(48.5 30.4514 49.501)
(48.501 30.4514 49.5)
(-49.5 30.4514 39.5616)
(-49.5 29.7124 39.5)
(48.5 30.4514 36.9002)
(48.5 30.4514 14.8881)
(-33.5 30.4514 -25.4401)
(-49.5 30.4514 -25.557)
(-49.5003 30.4514 -48.5)
(48.5004 30.4514 -48.5)
(-49.5 30.4514 -48.5003)
(-7.5 29.4514 -48.5005)
(-7.5 30.4514 -48.5005)
(48.5 30.4514 -48.5004)
(-49.5 31.4514 49.5004)
(-49.5004 31.4514 49.5)
(48.5 31.4514 49.501)
(48.501 31.4514 49.5)
(-49.5 31.4514 39.6242)
(48.5 31.4514 37.0287)
(-23.5 30.4514 36.4888)
(-24.5 31.4514 35.7294)
(48.5 31.4514 14.6252)
(-49.5 30.7799 -25.5)
(-49.5 31.4514 -25.3764)
(-49.5002 31.4514 -48.5)
(48.5004 31.4514 -48.5)
(-49.5 31.4514 -48.5002)
(-7.5 31.4514 -48.5004)
(48.5 31.4514 -48.5004)
(-49.5 32.4514 49.5004)
(-49.5004 32.4514 49.5)
(48.5 32.4514 49.5009)
(48.5009 32.4514 49.5)
(-49.5 32.4514 39.6555)
(48.5 32.4514 36.9909)
(48.5 31.6901 14.5)
(48.5 32.4514 13.9375)
(-49.5 32.4514 -25.271)
(-49.5002 32.4514 -48.5)
(48.5003 32.4514 -48.5)
(-49.5 32.4514 -48.5002)
(48.5 32.4514 -48.5003)
(-49.5 33.4514 49.5004)
(-49.5004 33.4514 49.5)
(48.5 33.4514 49.5009)
(48.5009 33.4514 49.5)
(-49.5 33.4514 39.7122)
(48.5 33.4514 36.7341)
(48.5 32.7912 13.5)
(48.5 33.3969 12.5)
(-49.5 33.4514 -25.3917)
(-49.5002 33.4514 -48.5)
(48.5003 33.4514 -48.5)
(-49.5 33.4514 -48.5002)
(48.5 33.4514 -48.5003)
(-49.5 34.4514 49.5004)
(-49.5004 34.4514 49.5)
(48.5 34.4514 49.5009)
(48.5009 34.4514 49.5)
(-49.5 34.4514 39.7682)
(48.5 34.024 35.5)
(48.5 34.2921 34.5)
(48.5 34.4514 34.0834)
(-49.5 33.7899 -25.5)
(-49.5 34.4514 -25.7023)
(-49.5002 34.4514 -48.5)
(48.5003 34.4514 -48.5)
(-49.5 34.4514 -48.5002)
(48.5 34.4514 -48.5003)
(-49.5 35.4514 49.5004)
(-49.5004 35.4514 49.5)
(48.5 35.4514 49.5009)
(48.501 35.4514 49.5)
(-49.5 35.4514 39.7932)
(48.5 34.6536 33.5)
(48.5 34.8743 32.5)
(48.5 34.9329 31.5)
(48.5 34.9329 30.5)
(48.5 34.9329 29.5)
(48.5 34.9329 28.5)
(48.5 34.9329 27.5)
(48.5 34.9329 26.5)
(48.5 34.9329 25.5)
(48.5 34.9422 24.5)
(48.5 35.0482 23.5)
(48.5 35.4067 22.5)
(48.5 35.4514 22.3856)
(40.5 35.4514 16.3141)
(48.5 35.0501 13.5)
(48.5 35.4514 14.3334)
(48.5 34.4941 12.5)
(-49.5 35.4514 -25.9586)
(-49.5001 35.4514 -48.5)
(48.5002 35.4514 -48.5)
(-49.5 35.4514 -48.5001)
(48.5 35.4514 -48.5002)
(-49.5 36.4514 49.5004)
(-49.5004 36.4514 49.5)
(48.5 36.4514 49.501)
(48.501 36.4514 49.5)
(-49.5 36.4514 39.826)
(48.5 35.7491 21.5)
(48.5 35.9329 20.5)
(48.5 35.9329 19.5)
(48.5 35.922 18.5)
(48.5 35.8716 17.5)
(48.5 35.7921 16.5)
(48.5 35.6536 15.5)
(48.5 35.4894 14.5)
(-49.5 36.4514 -26.1702)
(-49.5001 36.4514 -48.5)
(48.5002 36.4514 -48.5)
(-49.5 36.4514 -48.5001)
(48.5 36.4514 -48.5002)
(-49.5 37.4514 49.5004)
(-49.5004 37.4514 49.5)
(48.5 37.4514 49.5011)
(48.5011 37.4514 49.5)
(-49.5 37.4514 39.8522)
(-49.5 37.4514 -26.3917)
(-49.5001 37.4514 -48.5)
(48.5002 37.4514 -48.5)
(-49.5 37.4514 -48.5001)
(48.5 37.4514 -48.5002)
(-49.5 38.4514 49.5003)
(-49.5003 38.4514 49.5)
(48.5 38.4514 49.5011)
(48.5011 38.4514 49.5)
(-49.5 38.4514 39.9689)
(-49.5 37.7899 -26.5)
(-49.5 38.4514 -26.7023)
(-49.5001 38.4514 -48.5)
(48.5002 38.4514 -48.5)
(-49.5 38.4514 -48.5001)
(48.5 38.4514 -48.5002)
(-49.5 39.4514 49.5003)
(-49.5003 39.4514 49.5)
(48.5 39.4514 49.5012)
(48.5012 39.4514 49.5)
(-49.5 39.4514 40.0499)
(-49.5 39.4514 -26.9586)
(-49.5001 39.4514 -48.5)
(48.5001 39.4514 -48.5)
(-49.5 39.4514 -48.5001)
(48.5 39.4514 -48.5001)
(-49.5 40.4514 49.5002)
(-49.5002 40.4514 49.5)
(48.5 40.4514 49.5012)
(48.5012 40.4514 49.5)
(-49.5 40.4514 40.0933)
(-49.5 40.4514 -27.1702)
(-49.5001 40.4514 -48.5)
(48.5001 40.4514 -48.5)
(-49.5 40.4514 -48.5001)
(48.5 40.4514 -48.5001)
(-49.5 41.4514 49.5002)
(-49.5002 41.4514 49.5)
(48.5 41.4514 49.5013)
(48.5013 41.4514 49.5)
(-49.5 41.4514 40.1842)
(-49.5 41.4514 -27.3917)
(-49.5001 41.4514 -48.5)
(48.5001 41.4514 -48.5)
(-49.5 41.4514 -48.5001)
(48.5 41.4514 -48.5001)
(-49.5 42.4514 49.5002)
(-49.5002 42.4514 49.5)
(48.5 42.4514 49.5013)
(48.5013 42.4514 49.5)
(-47.4707 42.4514 40.5)
(-47.5 42.3986 40.5)
(-49.5 42.4514 40.3313)
(30.9824 42.4514 35.5)
(30.9742 42.4514 34.5)
(30.9596 42.4514 33.5)
(30.9071 42.4514 32.5)
(-49.5 41.7899 -27.5)
(-49.5 42.4514 -27.7023)
(-49.5001 42.4514 -48.5)
(48.5001 42.4514 -48.5)
(-49.5 42.4514 -48.5001)
(48.5 42.4514 -48.5001)
(-49.5 43.4514 49.5001)
(-49.5001 43.4514 49.5)
(48.5 43.4514 49.5012)
(48.5012 43.4514 49.5)
(-49.5 43.4514 40.5263)
(-49.5 43.3003 40.5)
(30.9824 43.4514 35.5)
(30.9493 43.4514 34.5)
(30.8972 43.4514 33.5)
(30.7397 43.4514 32.5)
(30.5465 43.4514 31.5)
(30.5 43.4514 31.2516)
(30.3683 43.4514 30.5)
(30.3027 43.4514 29.5)
(30.2744 43.4514 28.5)
(30.1749 43.4514 27.5)
(30.0693 43.4514 26.5)
(29.9824 43.4514 25.5)
(29.9742 43.4514 24.5)
(29.9596 43.4514 23.5)
(-49.5 43.4514 -27.9586)
(-49.5001 43.4514 -48.5)
(48.5001 43.4514 -48.5)
(-49.5 43.4514 -48.5001)
(48.5 43.4514 -48.5001)
(-49.5 44.4514 49.5001)
(-49.5001 44.4514 49.5)
(48.5 44.4514 49.5011)
(48.5011 44.4514 49.5)
(-49.5 44.4514 40.6548)
(-47.5 44.4514 40.9042)
(30.2627 44.4514 27.5)
(30.0693 44.4514 26.5)
(29.9824 44.4514 25.5)
(29.9493 44.4514 24.5)
(29.8972 44.4514 23.5)
(29.5 44.4514 21.2516)
(29.3683 44.4514 20.5)
(29.5445 44.4514 21.5)
(29.3027 44.4514 19.5)
(28.3427 44.4514 11.5)
(28.2401 44.4514 10.5)
(28.1728 44.4514 9.5)
(28.1061 44.4514 8.5)
(28.0277 44.4514 7.5)
(27.9071 44.4514 6.5)
(-49.5 44.4514 -28.1702)
(-49.5001 44.4514 -48.5)
(48.5001 44.4514 -48.5)
(-49.5 44.4514 -48.5001)
(48.5 44.4514 -48.5001)
(-49.5 45.4514 49.5001)
(-49.5001 45.4514 49.5)
(48.5 45.4514 49.501)
(48.501 45.4514 49.5)
(-48.7513 45.4514 41.5)
(-49.5 45.4514 40.9198)
(27.7397 45.4514 6.5)
(27.6073 45.4514 5.5)
(27.6233 45.4514 4.5)
(27.8795 45.4514 3.5)
(-49.5 45.4514 -28.4023)
(-49.5001 45.4514 -48.5)
(48.5001 45.4514 -48.5)
(-49.5 45.4514 -48.5001)
(48.5 45.4514 -48.5001)
(-49.5 46.4514 49.5001)
(-49.5001 46.4514 49.5)
(48.5 46.4514 49.501)
(48.501 46.4514 49.5)
(-49.5 46.4514 43.1036)
(-49.5 46.182 42.5)
(-45.6462 46.4514 40.5)
(-45.9936 45.4514 40.5)
(-49.5 45.7311 -28.5)
(-49.5 46.4514 -28.7647)
(-49.5001 46.4514 -48.5)
(48.5001 46.4514 -48.5)
(-49.5 46.4514 -48.5001)
(48.5 46.4514 -48.5001)
(-48.5 47.4514 49.5001)
(-47.5 47.4514 49.5001)
(-46.5 47.4514 49.5001)
(-45.5 47.4514 49.5001)
(-44.5 47.4514 49.5002)
(-43.5 47.4514 49.5002)
(-42.5 47.4514 49.5003)
(-41.5 47.4514 49.5003)
(-40.5 47.4514 49.5004)
(-39.5 47.4514 49.5004)
(-38.5 47.4514 49.5005)
(-37.5 47.4514 49.5006)
(-36.5 47.4514 49.5007)
(-35.5 47.4514 49.5008)
(-34.5 47.4514 49.5008)
(-33.5 47.4514 49.5009)
(-32.5 47.4514 49.5009)
(-31.5 47.4514 49.501)
(-30.5 47.4514 49.5009)
(-29.5 47.4514 49.5009)
(-28.5 47.4514 49.5008)
(-27.5 47.4514 49.5007)
(-26.5 47.4514 49.5007)
(-25.5 47.4514 49.5007)
(-24.5 47.4514 49.5006)
(-23.5 47.4514 49.5006)
(-22.5 47.4514 49.5005)
(-21.5 47.4514 49.5005)
(-20.5 47.4514 49.5005)
(-19.5 47.4514 49.5005)
(-18.5 47.4514 49.5005)
(-17.5 47.4514 49.5005)
(-16.5 47.4514 49.5005)
(-15.5 47.4514 49.5005)
(-14.5 47.4514 49.5005)
(-13.5 47.4514 49.5006)
(-12.5 47.4514 49.5007)
(-11.5 47.4514 49.5007)
(-10.5 47.4514 49.5007)
(-9.5 47.4514 49.5008)
(-8.5 47.4514 49.5008)
(-7.5 47.4514 49.5009)
(-6.5 47.4514 49.501)
(-5.5 47.4514 49.501)
(-4.5 47.4514 49.5011)
(-3.5 47.4514 49.5011)
(-2.5 47.4514 49.5012)
(-1.5 47.4514 49.5012)
(-0.5 47.4514 49.5012)
(0.5 47.4514 49.5012)
(1.5 47.4514 49.5011)
(2.5 47.4514 49.501)
(3.5 47.4514 49.501)
(4.5 47.4514 49.501)
(5.5 47.4514 49.5009)
(6.5 47.4514 49.5009)
(7.5 47.4514 49.5008)
(8.5 47.4514 49.5008)
(9.5 47.4514 49.5007)
(10.5 47.4514 49.5007)
(11.5 47.4514 49.5006)
(12.5 47.4514 49.5006)
(13.5 47.4514 49.5006)
(14.5 47.4514 49.5005)
(15.5 47.4514 49.5005)
(16.5 47.4514 49.5005)
(17.5 47.4514 49.5005)
(18.5 47.4514 49.5005)
(19.5 47.4514 49.5005)
(20.5 47.4514 49.5005)
(21.5 47.4514 49.5005)
(22.5 47.4514 49.5005)
(23.5 47.4514 49.5005)
(24.5 47.4514 49.5005)
(25.5 47.4514 49.5005)
(26.5 47.4514 49.5005)
(27.5 47.4514 49.5005)
(28.5 47.4514 49.5005)
(29.5 47.4514 49.5005)
(30.5 47.4514 49.5005)
(31.5 47.4514 49.5005)
(32.5 47.4514 49.5005)
(33.5 47.4514 49.5005)
(34.5 47.4514 49.5006)
(35.5 47.4514 49.5006)
(36.5 47.4514 49.5006)
(37.5 47.4514 49.5006)
(38.5 47.4514 49.5006)
(39.5 47.4514 49.5007)
(40.5 47.4514 49.5008)
(41.5 47.4514 49.5008)
(42.5 47.4514 49.5008)
(43.5 47.4514 49.5008)
(44.5 47.4514 49.5009)
(45.5 47.4514 49.501)
(46.5 47.4514 49.5009)
(47.5 47.4514 49.501)
(-49.5001 47.4514 48.5)
(48.5009 47.4514 48.5)
(48.5009 47.4514 47.5)
(-49.5 47.4514 46.5)
(48.5008 47.4514 46.5)
(-49.5 47.4514 45.5)
(48.5007 47.4514 45.5)
(-49.5 47.4514 44.5)
(-49.0528 47.4514 44.5)
(-47.5 47.4514 44.5661)
(48.5006 47.4514 44.5)
(-49.5 46.7447 43.5)
(-46.5316 47.4514 43.5)
(48.5006 47.4514 43.5)
(-46.5 47.4514 43.4258)
(-46.1774 47.4514 42.5)
(48.5005 47.4514 42.5)
(-45.8979 47.4514 41.5)
(48.5005 47.4514 41.5)
(-45.5 47.4514 40.7693)
(-45.3446 47.4514 40.5)
(48.5004 47.4514 40.5)
(-44.5 47.4514 39.9053)
(-43.8867 47.4514 39.5)
(48.5003 47.4514 39.5)
(-43.5 47.4514 39.1484)
(-42.8948 47.4514 38.5)
(48.5003 47.4514 38.5)
(-42.5 47.4514 37.6186)
(-42.4483 47.4514 37.5)
(-20.5673 47.4514 37.5)
(-20.5 47.4514 37.5502)
(-18.5 47.4514 38.3057)