/*--------------------------------*- C++ -*----------------------------------*\
  =========                 |
  \\      /  F ield         | OpenFOAM: The Open Source CFD Toolbox
   \\    /   O peration     | Website:  https://openfoam.org
    \\  /    A nd           | Version:  11
     \\/     M anipulation  |
\*---------------------------------------------------------------------------*/
FoamFile
{
    format      ascii;
    class       dictionary;
    object      surfaceFeaturesDict;
}
// * * * * * * * * * * * * * * * * * * * * * * * * * * * * * * * * * * * * * //

surfaces
(
    "cylinder.stl"
);

// Identify a feature when angle between faces < includedAngle
includedAngle   360; // 150;

trimFeatures
{
    minElem         0; // 10;   // minimum edges within a feature
}

writeObj        yes;  // writes out _edgeMesh.obj files to view features

// ************************************************************************* //
