FoamFile
{

format      ascii;
class       dictionary;
object      blockMeshDict;
}

convertToMeters 0.1;

vertices
(
    (0 0 0)
    (1 0 0)
    (2 0 0)
    (3 0 0)
    (4 0 0)
    (5 0 0)
    (6 0 0)
    (7 0 0)
    (8 0 0)
    (9 0 0)
    (0 1 0)
    (1 1 0)
    (2 1 0)
    (3 1 0)
    (4 1 0)
    (5 1 0)
    (6 1 0)
    (7 1 0)
    (8 1 0)
    (9 1 0)
    (0 2 0)
    (1 2 0)
    (2 2 0)
    (3 2 0)
    (4 2 0)
    (5 2 0)
    (6 2 0)
    (7 2 0)
    (8 2 0)
    (9 2 0)
    (0 3 0)
    (1 3 0)
    (2 3 0)
    (3 3 0)
    (4 3 0)
    (5 3 0)
    (6 3 0)
    (7 3 0)
    (8 3 0)
    (9 3 0)
    (0 4 0)
    (1 4 0)
    (2 4 0)
    (3 4 0)
    (4 4 0)
    (5 4 0)
    (6 4 0)
    (7 4 0)
    (8 4 0)
    (9 4 0)
    (0 5 0)
    (1 5 0)
    (2 5 0)
    (3 5 0)
    (4 5 0)
    (5 5 0)
    (6 5 0)
    (7 5 0)
    (8 5 0)
    (9 5 0)
    (0 6 0)
    (1 6 0)
    (2 6 0)
    (3 6 0)
    (4 6 0)
    (5 6 0)
    (6 6 0)
    (7 6 0)
    (8 6 0)
    (9 6 0)
    (0 7 0)
    (1 7 0)
    (2 7 0)
    (3 7 0)
    (4 7 0)
    (5 7 0)
    (6 7 0)
    (7 7 0)
    (8 7 0)
    (9 7 0)
    (0 8 0)
    (1 8 0)
    (2 8 0)
    (3 8 0)
    (4 8 0)
    (5 8 0)
    (6 8 0)
    (7 8 0)
    (8 8 0)
    (9 8 0)
    (0 9 0)
    (1 9 0)
    (2 9 0)
    (3 9 0)
    (4 9 0)
    (5 9 0)
    (6 9 0)
    (7 9 0)
    (8 9 0)
    (9 9 0)
    (0 0 1)
    (1 0 1)
    (2 0 1)
    (3 0 1)
    (4 0 1)
    (5 0 1)
    (6 0 1)
    (7 0 1)
    (8 0 1)
    (9 0 1)
    (0 1 1)
    (1 1 1)
    (2 1 1)
    (3 1 1)
    (4 1 1)
    (5 1 1)
    (6 1 1)
    (7 1 1)
    (8 1 1)
    (9 1 1)
    (0 2 1)
    (1 2 1)
    (2 2 1)
    (3 2 1)
    (4 2 1)
    (5 2 1)
    (6 2 1)
    (7 2 1)
    (8 2 1)
    (9 2 1)
    (0 3 1)
    (1 3 1)
    (2 3 1)
    (3 3 1)
    (4 3 1)
    (5 3 1)
    (6 3 1)
    (7 3 1)
    (8 3 1)
    (9 3 1)
    (0 4 1)
    (1 4 1)
    (2 4 1)
    (3 4 1)
    (4 4 1)
    (5 4 1)
    (6 4 1)
    (7 4 1)
    (8 4 1)
    (9 4 1)
    (0 5 1)
    (1 5 1)
    (2 5 1)
    (3 5 1)
    (4 5 1)
    (5 5 1)
    (6 5 1)
    (7 5 1)
    (8 5 1)
    (9 5 1)
    (0 6 1)
    (1 6 1)
    (2 6 1)
    (3 6 1)
    (4 6 1)
    (5 6 1)
    (6 6 1)
    (7 6 1)
    (8 6 1)
    (9 6 1)
    (0 7 1)
    (1 7 1)
    (2 7 1)
    (3 7 1)
    (4 7 1)
    (5 7 1)
    (6 7 1)
    (7 7 1)
    (8 7 1)
    (9 7 1)
    (0 8 1)
    (1 8 1)
    (2 8 1)
    (3 8 1)
    (4 8 1)
    (5 8 1)
    (6 8 1)
    (7 8 1)
    (8 8 1)
    (9 8 1)
    (0 9 1)
    (1 9 1)
    (2 9 1)
    (3 9 1)
    (4 9 1)
    (5 9 1)
    (6 9 1)
    (7 9 1)
    (8 9 1)
    (9 9 1)
    (0 0 2)
    (1 0 2)
    (2 0 2)
    (3 0 2)
    (4 0 2)
    (5 0 2)
    (6 0 2)
    (7 0 2)
    (8 0 2)
    (9 0 2)
    (0 1 2)
    (1 1 2)
    (2 1 2)
    (3 1 2)
    (4 1 2)
    (5 1 2)
    (6 1 2)
    (7 1 2)
    (8 1 2)
    (9 1 2)
    (0 2 2)
    (1 2 2)
    (2 2 2)
    (3 2 2)
    (4 2 2)
    (5 2 2)
    (6 2 2)
    (7 2 2)
    (8 2 2)
    (9 2 2)
    (0 3 2)
    (1 3 2)
    (2 3 2)
    (3 3 2)
    (4 3 2)
    (5 3 2)
    (6 3 2)
    (7 3 2)
    (8 3 2)
    (9 3 2)
    (0 4 2)
    (1 4 2)
    (2 4 2)
    (3 4 2)
    (4 4 2)
    (5 4 2)
    (6 4 2)
    (7 4 2)
    (8 4 2)
    (9 4 2)
    (0 5 2)
    (1 5 2)
    (2 5 2)
    (3 5 2)
    (4 5 2)
    (5 5 2)
    (6 5 2)
    (7 5 2)
    (8 5 2)
    (9 5 2)
    (0 6 2)
    (1 6 2)
    (2 6 2)
    (3 6 2)
    (4 6 2)
    (5 6 2)
    (6 6 2)
    (7 6 2)
    (8 6 2)
    (9 6 2)
    (0 7 2)
    (1 7 2)
    (2 7 2)
    (3 7 2)
    (4 7 2)
    (5 7 2)
    (6 7 2)
    (7 7 2)
    (8 7 2)
    (9 7 2)
    (0 8 2)
    (1 8 2)
    (2 8 2)
    (3 8 2)
    (4 8 2)
    (5 8 2)
    (6 8 2)
    (7 8 2)
    (8 8 2)
    (9 8 2)
    (0 9 2)
    (1 9 2)
    (2 9 2)
    (3 9 2)
    (4 9 2)
    (5 9 2)
    (6 9 2)
    (7 9 2)
    (8 9 2)
    (9 9 2)
    (0 0 3)
    (1 0 3)
    (2 0 3)
    (3 0 3)
    (4 0 3)
    (5 0 3)
    (6 0 3)
    (7 0 3)
    (8 0 3)
    (9 0 3)
    (0 1 3)
    (1 1 3)
    (2 1 3)
    (3 1 3)
    (4 1 3)
    (5 1 3)
    (6 1 3)
    (7 1 3)
    (8 1 3)
    (9 1 3)
    (0 2 3)
    (1 2 3)
    (2 2 3)
    (3 2 3)
    (4 2 3)
    (5 2 3)
    (6 2 3)
    (7 2 3)
    (8 2 3)
    (9 2 3)
    (0 3 3)
    (1 3 3)
    (2 3 3)
    (3 3 3)
    (4 3 3)
    (5 3 3)
    (6 3 3)
    (7 3 3)
    (8 3 3)
    (9 3 3)
    (0 4 3)
    (1 4 3)
    (2 4 3)
    (3 4 3)
    (4 4 3)
    (5 4 3)
    (6 4 3)
    (7 4 3)
    (8 4 3)
    (9 4 3)
    (0 5 3)
    (1 5 3)
    (2 5 3)
    (3 5 3)
    (4 5 3)
    (5 5 3)
    (6 5 3)
    (7 5 3)
    (8 5 3)
    (9 5 3)
    (0 6 3)
    (1 6 3)
    (2 6 3)
    (3 6 3)
    (4 6 3)
    (5 6 3)
    (6 6 3)
    (7 6 3)
    (8 6 3)
    (9 6 3)
    (0 7 3)
    (1 7 3)
    (2 7 3)
    (3 7 3)
    (4 7 3)
    (5 7 3)
    (6 7 3)
    (7 7 3)
    (8 7 3)
    (9 7 3)
    (0 8 3)
    (1 8 3)
    (2 8 3)
    (3 8 3)
    (4 8 3)
    (5 8 3)
    (6 8 3)
    (7 8 3)
    (8 8 3)
    (9 8 3)
    (0 9 3)
    (1 9 3)
    (2 9 3)
    (3 9 3)
    (4 9 3)
    (5 9 3)
    (6 9 3)
    (7 9 3)
    (8 9 3)
    (9 9 3)
    (0 0 4)
    (1 0 4)
    (2 0 4)
    (3 0 4)
    (4 0 4)
    (5 0 4)
    (6 0 4)
    (7 0 4)
    (8 0 4)
    (9 0 4)
    (0 1 4)
    (1 1 4)
    (2 1 4)
    (3 1 4)
    (4 1 4)
    (5 1 4)
    (6 1 4)
    (7 1 4)
    (8 1 4)
    (9 1 4)
    (0 2 4)
    (1 2 4)
    (2 2 4)
    (3 2 4)
    (4 2 4)
    (5 2 4)
    (6 2 4)
    (7 2 4)
    (8 2 4)
    (9 2 4)
    (0 3 4)
    (1 3 4)
    (2 3 4)
    (3 3 4)
    (4 3 4)
    (5 3 4)
    (6 3 4)
    (7 3 4)
    (8 3 4)
    (9 3 4)
    (0 4 4)
    (1 4 4)
    (2 4 4)
    (3 4 4)
    (4 4 4)
    (5 4 4)
    (6 4 4)
    (7 4 4)
    (8 4 4)
    (9 4 4)
    (0 5 4)
    (1 5 4)
    (2 5 4)
    (3 5 4)
    (4 5 4)
    (5 5 4)
    (6 5 4)
    (7 5 4)
    (8 5 4)
    (9 5 4)
    (0 6 4)
    (1 6 4)
    (2 6 4)
    (3 6 4)
    (4 6 4)
    (5 6 4)
    (6 6 4)
    (7 6 4)
    (8 6 4)
    (9 6 4)
    (0 7 4)
    (1 7 4)
    (2 7 4)
    (3 7 4)
    (4 7 4)
    (5 7 4)
    (6 7 4)
    (7 7 4)
    (8 7 4)
    (9 7 4)
    (0 8 4)
    (1 8 4)
    (2 8 4)
    (3 8 4)
    (4 8 4)
    (5 8 4)
    (6 8 4)
    (7 8 4)
    (8 8 4)
    (9 8 4)
    (0 9 4)
    (1 9 4)
    (2 9 4)
    (3 9 4)
    (4 9 4)
    (5 9 4)
    (6 9 4)
    (7 9 4)
    (8 9 4)
    (9 9 4)
    (0 0 5)
    (1 0 5)
    (2 0 5)
    (3 0 5)
    (4 0 5)
    (5 0 5)
    (6 0 5)
    (7 0 5)
    (8 0 5)
    (9 0 5)
    (0 1 5)
    (1 1 5)
    (2 1 5)
    (3 1 5)
    (4 1 5)
    (5 1 5)
    (6 1 5)
    (7 1 5)
    (8 1 5)
    (9 1 5)
    (0 2 5)
    (1 2 5)
    (2 2 5)
    (3 2 5)
    (4 2 5)
    (5 2 5)
    (6 2 5)
    (7 2 5)
    (8 2 5)
    (9 2 5)
    (0 3 5)
    (1 3 5)
    (2 3 5)
    (3 3 5)
    (4 3 5)
    (5 3 5)
    (6 3 5)
    (7 3 5)
    (8 3 5)
    (9 3 5)
    (0 4 5)
    (1 4 5)
    (2 4 5)
    (3 4 5)
    (4 4 5)
    (5 4 5)
    (6 4 5)
    (7 4 5)
    (8 4 5)
    (9 4 5)
    (0 5 5)
    (1 5 5)
    (2 5 5)
    (3 5 5)
    (4 5 5)
    (5 5 5)
    (6 5 5)
    (7 5 5)
    (8 5 5)
    (9 5 5)
    (0 6 5)
    (1 6 5)
    (2 6 5)
    (3 6 5)
    (4 6 5)
    (5 6 5)
    (6 6 5)
    (7 6 5)
    (8 6 5)
    (9 6 5)
    (0 7 5)
    (1 7 5)
    (2 7 5)
    (3 7 5)
    (4 7 5)
    (5 7 5)
    (6 7 5)
    (7 7 5)
    (8 7 5)
    (9 7 5)
    (0 8 5)
    (1 8 5)
    (2 8 5)
    (3 8 5)
    (4 8 5)
    (5 8 5)
    (6 8 5)
    (7 8 5)
    (8 8 5)
    (9 8 5)
    (0 9 5)
    (1 9 5)
    (2 9 5)
    (3 9 5)
    (4 9 5)
    (5 9 5)
    (6 9 5)
    (7 9 5)
    (8 9 5)
    (9 9 5)
    (0 0 6)
    (1 0 6)
    (2 0 6)
    (3 0 6)
    (4 0 6)
    (5 0 6)
    (6 0 6)
    (7 0 6)
    (8 0 6)
    (9 0 6)
    (0 1 6)
    (1 1 6)
    (2 1 6)
    (3 1 6)
    (4 1 6)
    (5 1 6)
    (6 1 6)
    (7 1 6)
    (8 1 6)
    (9 1 6)
    (0 2 6)
    (1 2 6)
    (2 2 6)
    (3 2 6)
    (4 2 6)
    (5 2 6)
    (6 2 6)
    (7 2 6)
    (8 2 6)
    (9 2 6)
    (0 3 6)
    (1 3 6)
    (2 3 6)
    (3 3 6)
    (4 3 6)
    (5 3 6)
    (6 3 6)
    (7 3 6)
    (8 3 6)
    (9 3 6)
    (0 4 6)
    (1 4 6)
    (2 4 6)
    (3 4 6)
    (4 4 6)
    (5 4 6)
    (6 4 6)
    (7 4 6)
    (8 4 6)
    (9 4 6)
    (0 5 6)
    (1 5 6)
    (2 5 6)
    (3 5 6)
    (4 5 6)
    (5 5 6)
    (6 5 6)
    (7 5 6)
    (8 5 6)
    (9 5 6)
    (0 6 6)
    (1 6 6)
    (2 6 6)
    (3 6 6)
    (4 6 6)
    (5 6 6)
    (6 6 6)
    (7 6 6)
    (8 6 6)
    (9 6 6)
    (0 7 6)
    (1 7 6)
    (2 7 6)
    (3 7 6)
    (4 7 6)
    (5 7 6)
    (6 7 6)
    (7 7 6)
    (8 7 6)
    (9 7 6)
    (0 8 6)
    (1 8 6)
    (2 8 6)
    (3 8 6)
    (4 8 6)
    (5 8 6)
    (6 8 6)
    (7 8 6)
    (8 8 6)
    (9 8 6)
    (0 9 6)
    (1 9 6)
    (2 9 6)
    (3 9 6)
    (4 9 6)
    (5 9 6)
    (6 9 6)
    (7 9 6)
    (8 9 6)
    (9 9 6)
    (0 0 7)
    (1 0 7)
    (2 0 7)
    (3 0 7)
    (4 0 7)
    (5 0 7)
    (6 0 7)
    (7 0 7)
    (8 0 7)
    (9 0 7)
    (0 1 7)
    (1 1 7)
    (2 1 7)
    (3 1 7)
    (4 1 7)
    (5 1 7)
    (6 1 7)
    (7 1 7)
    (8 1 7)
    (9 1 7)
    (0 2 7)
    (1 2 7)
    (2 2 7)
    (3 2 7)
    (4 2 7)
    (5 2 7)
    (6 2 7)
    (7 2 7)
    (8 2 7)
    (9 2 7)
    (0 3 7)
    (1 3 7)
    (2 3 7)
    (3 3 7)
    (4 3 7)
    (5 3 7)
    (6 3 7)
    (7 3 7)
    (8 3 7)
    (9 3 7)
    (0 4 7)
    (1 4 7)
    (2 4 7)
    (3 4 7)
    (4 4 7)
    (5 4 7)
    (6 4 7)
    (7 4 7)
    (8 4 7)
    (9 4 7)
    (0 5 7)
    (1 5 7)
    (2 5 7)
    (3 5 7)
    (4 5 7)
    (5 5 7)
    (6 5 7)
    (7 5 7)
    (8 5 7)
    (9 5 7)
    (0 6 7)
    (1 6 7)
    (2 6 7)
    (3 6 7)
    (4 6 7)
    (5 6 7)
    (6 6 7)
    (7 6 7)
    (8 6 7)
    (9 6 7)
    (0 7 7)
    (1 7 7)
    (2 7 7)
    (3 7 7)
    (4 7 7)
    (5 7 7)
    (6 7 7)
    (7 7 7)
    (8 7 7)
    (9 7 7)
    (0 8 7)
    (1 8 7)
    (2 8 7)
    (3 8 7)
    (4 8 7)
    (5 8 7)
    (6 8 7)
    (7 8 7)
    (8 8 7)
    (9 8 7)
    (0 9 7)
    (1 9 7)
    (2 9 7)
    (3 9 7)
    (4 9 7)
    (5 9 7)
    (6 9 7)
    (7 9 7)
    (8 9 7)
    (9 9 7)
    (0 0 8)
    (1 0 8)
    (2 0 8)
    (3 0 8)
    (4 0 8)
    (5 0 8)
    (6 0 8)
    (7 0 8)
    (8 0 8)
    (9 0 8)
    (0 1 8)
    (1 1 8)
    (2 1 8)
    (3 1 8)
    (4 1 8)
    (5 1 8)
    (6 1 8)
    (7 1 8)
    (8 1 8)
    (9 1 8)
    (0 2 8)
    (1 2 8)
    (2 2 8)
    (3 2 8)
    (4 2 8)
    (5 2 8)
    (6 2 8)
    (7 2 8)
    (8 2 8)
    (9 2 8)
    (0 3 8)
    (1 3 8)
    (2 3 8)
    (3 3 8)
    (4 3 8)
    (5 3 8)
    (6 3 8)
    (7 3 8)
    (8 3 8)
    (9 3 8)
    (0 4 8)
    (1 4 8)
    (2 4 8)
    (3 4 8)
    (4 4 8)
    (5 4 8)
    (6 4 8)
    (7 4 8)
    (8 4 8)
    (9 4 8)
    (0 5 8)
    (1 5 8)
    (2 5 8)
    (3 5 8)
    (4 5 8)
    (5 5 8)
    (6 5 8)
    (7 5 8)
    (8 5 8)
    (9 5 8)
    (0 6 8)
    (1 6 8)
    (2 6 8)
    (3 6 8)
    (4 6 8)
    (5 6 8)
    (6 6 8)
    (7 6 8)
    (8 6 8)
    (9 6 8)
    (0 7 8)
    (1 7 8)
    (2 7 8)
    (3 7 8)
    (4 7 8)
    (5 7 8)
    (6 7 8)
    (7 7 8)
    (8 7 8)
    (9 7 8)
    (0 8 8)
    (1 8 8)
    (2 8 8)
    (3 8 8)
    (4 8 8)
    (5 8 8)
    (6 8 8)
    (7 8 8)
    (8 8 8)
    (9 8 8)
    (0 9 8)
    (1 9 8)
    (2 9 8)
    (3 9 8)
    (4 9 8)
    (5 9 8)
    (6 9 8)
    (7 9 8)
    (8 9 8)
    (9 9 8)
    (0 0 9)
    (1 0 9)
    (2 0 9)
    (3 0 9)
    (4 0 9)
    (5 0 9)
    (6 0 9)
    (7 0 9)
    (8 0 9)
    (9 0 9)
    (0 1 9)
    (1 1 9)
    (2 1 9)
    (3 1 9)
    (4 1 9)
    (5 1 9)
    (6 1 9)
    (7 1 9)
    (8 1 9)
    (9 1 9)
    (0 2 9)
    (1 2 9)
    (2 2 9)
    (3 2 9)
    (4 2 9)
    (5 2 9)
    (6 2 9)
    (7 2 9)
    (8 2 9)
    (9 2 9)
    (0 3 9)
    (1 3 9)
    (2 3 9)
    (3 3 9)
    (4 3 9)
    (5 3 9)
    (6 3 9)
    (7 3 9)
    (8 3 9)
    (9 3 9)
    (0 4 9)
    (1 4 9)
    (2 4 9)
    (3 4 9)
    (4 4 9)
    (5 4 9)
    (6 4 9)
    (7 4 9)
    (8 4 9)
    (9 4 9)
    (0 5 9)
    (1 5 9)
    (2 5 9)
    (3 5 9)
    (4 5 9)
    (5 5 9)
    (6 5 9)
    (7 5 9)
    (8 5 9)
    (9 5 9)
    (0 6 9)
    (1 6 9)
    (2 6 9)
    (3 6 9)
    (4 6 9)
    (5 6 9)
    (6 6 9)
    (7 6 9)
    (8 6 9)
    (9 6 9)
    (0 7 9)
    (1 7 9)
    (2 7 9)
    (3 7 9)
    (4 7 9)
    (5 7 9)
    (6 7 9)
    (7 7 9)
    (8 7 9)
    (9 7 9)
    (0 8 9)
    (1 8 9)
    (2 8 9)
    (3 8 9)
    (4 8 9)
    (5 8 9)
    (6 8 9)
    (7 8 9)
    (8 8 9)
    (9 8 9)
    (0 9 9)
    (1 9 9)
    (2 9 9)
    (3 9 9)
    (4 9 9)
    (5 9 9)
    (6 9 9)
    (7 9 9)
    (8 9 9)
    (9 9 9)
);

blocks
(
    hex (0 1 11 10 100 101 111 110)
    (1 1 1)
    simpleGrading (10 1 1)

    hex (1 2 12 11 101 102 112 111)
    (1 1 1)
    simpleGrading (10 1 1)

    hex (2 3 13 12 102 103 113 112)
    (1 1 1)
    simpleGrading (10 1 1)

    hex (3 4 14 13 103 104 114 113)
    (1 1 1)
    simpleGrading (10 1 1)

    hex (4 5 15 14 104 105 115 114)
    (1 1 1)
    simpleGrading (10 1 1)

    hex (5 6 16 15 105 106 116 115)
    (1 1 1)
    simpleGrading (10 1 1)

    hex (6 7 17 16 106 107 117 116)
    (1 1 1)
    simpleGrading (10 1 1)

    hex (7 8 18 17 107 108 118 117)
    (1 1 1)
    simpleGrading (10 1 1)

    hex (8 9 19 18 108 109 119 118)
    (1 1 1)
    simpleGrading (10 1 1)

    hex (10 11 21 20 110 111 121 120)
    (1 1 1)
    simpleGrading (10 1 1)

    hex (11 12 22 21 111 112 122 121)
    (1 1 1)
    simpleGrading (10 1 1)

    hex (12 13 23 22 112 113 123 122)
    (1 1 1)
    simpleGrading (10 1 1)

    hex (13 14 24 23 113 114 124 123)
    (1 1 1)
    simpleGrading (10 1 1)

    hex (14 15 25 24 114 115 125 124)
    (1 1 1)
    simpleGrading (10 1 1)

    hex (15 16 26 25 115 116 126 125)
    (1 1 1)
    simpleGrading (10 1 1)

    hex (16 17 27 26 116 117 127 126)
    (1 1 1)
    simpleGrading (10 1 1)

    hex (17 18 28 27 117 118 128 127)
    (1 1 1)
    simpleGrading (10 1 1)

    hex (18 19 29 28 118 119 129 128)
    (1 1 1)
    simpleGrading (10 1 1)

    hex (20 21 31 30 120 121 131 130)
    (1 1 1)
    simpleGrading (10 1 1)

    hex (21 22 32 31 121 122 132 131)
    (1 1 1)
    simpleGrading (10 1 1)

    hex (22 23 33 32 122 123 133 132)
    (1 1 1)
    simpleGrading (10 1 1)

    hex (23 24 34 33 123 124 134 133)
    (1 1 1)
    simpleGrading (10 1 1)

    hex (24 25 35 34 124 125 135 134)
    (1 1 1)
    simpleGrading (10 1 1)

    hex (25 26 36 35 125 126 136 135)
    (1 1 1)
    simpleGrading (10 1 1)

    hex (26 27 37 36 126 127 137 136)
    (1 1 1)
    simpleGrading (10 1 1)

    hex (27 28 38 37 127 128 138 137)
    (1 1 1)
    simpleGrading (10 1 1)

    hex (28 29 39 38 128 129 139 138)
    (1 1 1)
    simpleGrading (10 1 1)

    hex (30 31 41 40 130 131 141 140)
    (1 1 1)
    simpleGrading (10 1 1)

    hex (31 32 42 41 131 132 142 141)
    (1 1 1)
    simpleGrading (10 1 1)

    hex (32 33 43 42 132 133 143 142)
    (1 1 1)
    simpleGrading (10 1 1)

    hex (33 34 44 43 133 134 144 143)
    (1 1 1)
    simpleGrading (10 1 1)

    hex (34 35 45 44 134 135 145 144)
    (1 1 1)
    simpleGrading (10 1 1)

    hex (35 36 46 45 135 136 146 145)
    (1 1 1)
    simpleGrading (10 1 1)

    hex (36 37 47 46 136 137 147 146)
    (1 1 1)
    simpleGrading (10 1 1)

    hex (37 38 48 47 137 138 148 147)
    (1 1 1)
    simpleGrading (10 1 1)

    hex (38 39 49 48 138 139 149 148)
    (1 1 1)
    simpleGrading (10 1 1)

    hex (40 41 51 50 140 141 151 150)
    (1 1 1)
    simpleGrading (10 1 1)

    hex (41 42 52 51 141 142 152 151)
    (1 1 1)
    simpleGrading (10 1 1)

    hex (42 43 53 52 142 143 153 152)
    (1 1 1)
    simpleGrading (10 1 1)

    hex (43 44 54 53 143 144 154 153)
    (1 1 1)
    simpleGrading (10 1 1)

    hex (44 45 55 54 144 145 155 154)
    (1 1 1)
    simpleGrading (10 1 1)

    hex (45 46 56 55 145 146 156 155)
    (1 1 1)
    simpleGrading (10 1 1)

    hex (46 47 57 56 146 147 157 156)
    (1 1 1)
    simpleGrading (10 1 1)

    hex (47 48 58 57 147 148 158 157)
    (1 1 1)
    simpleGrading (10 1 1)

    hex (48 49 59 58 148 149 159 158)
    (1 1 1)
    simpleGrading (10 1 1)

    hex (50 51 61 60 150 151 161 160)
    (1 1 1)
    simpleGrading (10 1 1)

    hex (51 52 62 61 151 152 162 161)
    (1 1 1)
    simpleGrading (10 1 1)

    hex (52 53 63 62 152 153 163 162)
    (1 1 1)
    simpleGrading (10 1 1)

    hex (53 54 64 63 153 154 164 163)
    (1 1 1)
    simpleGrading (10 1 1)

    hex (54 55 65 64 154 155 165 164)
    (1 1 1)
    simpleGrading (10 1 1)

    hex (55 56 66 65 155 156 166 165)
    (1 1 1)
    simpleGrading (10 1 1)

    hex (56 57 67 66 156 157 167 166)
    (1 1 1)
    simpleGrading (10 1 1)

    hex (57 58 68 67 157 158 168 167)
    (1 1 1)
    simpleGrading (10 1 1)

    hex (58 59 69 68 158 159 169 168)
    (1 1 1)
    simpleGrading (10 1 1)

    hex (60 61 71 70 160 161 171 170)
    (1 1 1)
    simpleGrading (10 1 1)

    hex (61 62 72 71 161 162 172 171)
    (1 1 1)
    simpleGrading (10 1 1)

    hex (62 63 73 72 162 163 173 172)
    (1 1 1)
    simpleGrading (10 1 1)

    hex (63 64 74 73 163 164 174 173)
    (1 1 1)
    simpleGrading (10 1 1)

    hex (64 65 75 74 164 165 175 174)
    (1 1 1)
    simpleGrading (10 1 1)

    hex (65 66 76 75 165 166 176 175)
    (1 1 1)
    simpleGrading (10 1 1)

    hex (66 67 77 76 166 167 177 176)
    (1 1 1)
    simpleGrading (10 1 1)

    hex (67 68 78 77 167 168 178 177)
    (1 1 1)
    simpleGrading (10 1 1)

    hex (68 69 79 78 168 169 179 178)
    (1 1 1)
    simpleGrading (10 1 1)

    hex (70 71 81 80 170 171 181 180)
    (1 1 1)
    simpleGrading (10 1 1)

    hex (71 72 82 81 171 172 182 181)
    (1 1 1)
    simpleGrading (10 1 1)

    hex (72 73 83 82 172 173 183 182)
    (1 1 1)
    simpleGrading (10 1 1)

    hex (73 74 84 83 173 174 184 183)
    (1 1 1)
    simpleGrading (10 1 1)

    hex (74 75 85 84 174 175 185 184)
    (1 1 1)
    simpleGrading (10 1 1)

    hex (75 76 86 85 175 176 186 185)
    (1 1 1)
    simpleGrading (10 1 1)

    hex (76 77 87 86 176 177 187 186)
    (1 1 1)
    simpleGrading (10 1 1)

    hex (77 78 88 87 177 178 188 187)
    (1 1 1)
    simpleGrading (10 1 1)

    hex (78 79 89 88 178 179 189 188)
    (1 1 1)
    simpleGrading (10 1 1)

    hex (80 81 91 90 180 181 191 190)
    (1 1 1)
    simpleGrading (10 1 1)

    hex (81 82 92 91 181 182 192 191)
    (1 1 1)
    simpleGrading (10 1 1)

    hex (82 83 93 92 182 183 193 192)
    (1 1 1)
    simpleGrading (10 1 1)

    hex (83 84 94 93 183 184 194 193)
    (1 1 1)
    simpleGrading (10 1 1)

    hex (84 85 95 94 184 185 195 194)
    (1 1 1)
    simpleGrading (10 1 1)

    hex (85 86 96 95 185 186 196 195)
    (1 1 1)
    simpleGrading (10 1 1)

    hex (86 87 97 96 186 187 197 196)
    (1 1 1)
    simpleGrading (10 1 1)

    hex (87 88 98 97 187 188 198 197)
    (1 1 1)
    simpleGrading (10 1 1)

    hex (88 89 99 98 188 189 199 198)
    (1 1 1)
    simpleGrading (10 1 1)

    hex (100 101 111 110 200 201 211 210)
    (1 1 1)
    simpleGrading (10 1 1)

    hex (101 102 112 111 201 202 212 211)
    (1 1 1)
    simpleGrading (10 1 1)

    hex (102 103 113 112 202 203 213 212)
    (1 1 1)
    simpleGrading (10 1 1)

    hex (103 104 114 113 203 204 214 213)
    (1 1 1)
    simpleGrading (10 1 1)

    hex (104 105 115 114 204 205 215 214)
    (1 1 1)
    simpleGrading (10 1 1)

    hex (105 106 116 115 205 206 216 215)
    (1 1 1)
    simpleGrading (10 1 1)

    hex (106 107 117 116 206 207 217 216)
    (1 1 1)
    simpleGrading (10 1 1)

    hex (107 108 118 117 207 208 218 217)
    (1 1 1)
    simpleGrading (10 1 1)

    hex (108 109 119 118 208 209 219 218)
    (1 1 1)
    simpleGrading (10 1 1)

    hex (110 111 121 120 210 211 221 220)
    (1 1 1)
    simpleGrading (10 1 1)

    hex (111 112 122 121 211 212 222 221)
    (1 1 1)
    simpleGrading (10 1 1)

    hex (112 113 123 122 212 213 223 222)
    (1 1 1)
    simpleGrading (10 1 1)

    hex (113 114 124 123 213 214 224 223)
    (1 1 1)
    simpleGrading (10 1 1)

    hex (114 115 125 124 214 215 225 224)
    (1 1 1)
    simpleGrading (10 1 1)

    hex (115 116 126 125 215 216 226 225)
    (1 1 1)
    simpleGrading (10 1 1)

    hex (116 117 127 126 216 217 227 226)
    (1 1 1)
    simpleGrading (10 1 1)

    hex (117 118 128 127 217 218 228 227)
    (1 1 1)
    simpleGrading (10 1 1)

    hex (118 119 129 128 218 219 229 228)
    (1 1 1)
    simpleGrading (10 1 1)

    hex (120 121 131 130 220 221 231 230)
    (1 1 1)
    simpleGrading (10 1 1)

    hex (121 122 132 131 221 222 232 231)
    (1 1 1)
    simpleGrading (10 1 1)

    hex (122 123 133 132 222 223 233 232)
    (1 1 1)
    simpleGrading (10 1 1)

    hex (123 124 134 133 223 224 234 233)
    (1 1 1)
    simpleGrading (10 1 1)

    hex (124 125 135 134 224 225 235 234)
    (1 1 1)
    simpleGrading (10 1 1)

    hex (125 126 136 135 225 226 236 235)
    (1 1 1)
    simpleGrading (10 1 1)

    hex (126 127 137 136 226 227 237 236)
    (1 1 1)
    simpleGrading (10 1 1)

    hex (127 128 138 137 227 228 238 237)
    (1 1 1)
    simpleGrading (10 1 1)

    hex (128 129 139 138 228 229 239 238)
    (1 1 1)
    simpleGrading (10 1 1)

    hex (130 131 141 140 230 231 241 240)
    (1 1 1)
    simpleGrading (10 1 1)

    hex (131 132 142 141 231 232 242 241)
    (1 1 1)
    simpleGrading (10 1 1)

    hex (132 133 143 142 232 233 243 242)
    (1 1 1)
    simpleGrading (10 1 1)

    hex (133 134 144 143 233 234 244 243)
    (1 1 1)
    simpleGrading (10 1 1)

    hex (134 135 145 144 234 235 245 244)
    (1 1 1)
    simpleGrading (10 1 1)

    hex (135 136 146 145 235 236 246 245)
    (1 1 1)
    simpleGrading (10 1 1)

    hex (136 137 147 146 236 237 247 246)
    (1 1 1)
    simpleGrading (10 1 1)

    hex (137 138 148 147 237 238 248 247)
    (1 1 1)
    simpleGrading (10 1 1)

    hex (138 139 149 148 238 239 249 248)
    (1 1 1)
    simpleGrading (10 1 1)

    hex (140 141 151 150 240 241 251 250)
    (1 1 1)
    simpleGrading (10 1 1)

    hex (141 142 152 151 241 242 252 251)
    (1 1 1)
    simpleGrading (10 1 1)

    hex (142 143 153 152 242 243 253 252)
    (1 1 1)
    simpleGrading (10 1 1)

    hex (143 144 154 153 243 244 254 253)
    (1 1 1)
    simpleGrading (10 1 1)

    hex (144 145 155 154 244 245 255 254)
    (1 1 1)
    simpleGrading (10 1 1)

    hex (145 146 156 155 245 246 256 255)
    (1 1 1)
    simpleGrading (10 1 1)

    hex (146 147 157 156 246 247 257 256)
    (1 1 1)
    simpleGrading (10 1 1)

    hex (147 148 158 157 247 248 258 257)
    (1 1 1)
    simpleGrading (10 1 1)

    hex (148 149 159 158 248 249 259 258)
    (1 1 1)
    simpleGrading (10 1 1)

    hex (150 151 161 160 250 251 261 260)
    (1 1 1)
    simpleGrading (10 1 1)

    hex (151 152 162 161 251 252 262 261)
    (1 1 1)
    simpleGrading (10 1 1)

    hex (152 153 163 162 252 253 263 262)
    (1 1 1)
    simpleGrading (10 1 1)

    hex (153 154 164 163 253 254 264 263)
    (1 1 1)
    simpleGrading (10 1 1)

    hex (154 155 165 164 254 255 265 264)
    (1 1 1)
    simpleGrading (10 1 1)

    hex (155 156 166 165 255 256 266 265)
    (1 1 1)
    simpleGrading (10 1 1)

    hex (156 157 167 166 256 257 267 266)
    (1 1 1)
    simpleGrading (10 1 1)

    hex (157 158 168 167 257 258 268 267)
    (1 1 1)
    simpleGrading (10 1 1)

    hex (158 159 169 168 258 259 269 268)
    (1 1 1)
    simpleGrading (10 1 1)

    hex (160 161 171 170 260 261 271 270)
    (1 1 1)
    simpleGrading (10 1 1)

    hex (161 162 172 171 261 262 272 271)
    (1 1 1)
    simpleGrading (10 1 1)

    hex (162 163 173 172 262 263 273 272)
    (1 1 1)
    simpleGrading (10 1 1)

    hex (163 164 174 173 263 264 274 273)
    (1 1 1)
    simpleGrading (10 1 1)

    hex (164 165 175 174 264 265 275 274)
    (1 1 1)
    simpleGrading (10 1 1)

    hex (165 166 176 175 265 266 276 275)
    (1 1 1)
    simpleGrading (10 1 1)

    hex (166 167 177 176 266 267 277 276)
    (1 1 1)
    simpleGrading (10 1 1)

    hex (167 168 178 177 267 268 278 277)
    (1 1 1)
    simpleGrading (10 1 1)

    hex (168 169 179 178 268 269 279 278)
    (1 1 1)
    simpleGrading (10 1 1)

    hex (170 171 181 180 270 271 281 280)
    (1 1 1)
    simpleGrading (10 1 1)

    hex (171 172 182 181 271 272 282 281)
    (1 1 1)
    simpleGrading (10 1 1)

    hex (172 173 183 182 272 273 283 282)
    (1 1 1)
    simpleGrading (10 1 1)

    hex (173 174 184 183 273 274 284 283)
    (1 1 1)
    simpleGrading (10 1 1)

    hex (174 175 185 184 274 275 285 284)
    (1 1 1)
    simpleGrading (10 1 1)

    hex (175 176 186 185 275 276 286 285)
    (1 1 1)
    simpleGrading (10 1 1)

    hex (176 177 187 186 276 277 287 286)
    (1 1 1)
    simpleGrading (10 1 1)

    hex (177 178 188 187 277 278 288 287)
    (1 1 1)
    simpleGrading (10 1 1)

    hex (178 179 189 188 278 279 289 288)
    (1 1 1)
    simpleGrading (10 1 1)

    hex (180 181 191 190 280 281 291 290)
    (1 1 1)
    simpleGrading (10 1 1)

    hex (181 182 192 191 281 282 292 291)
    (1 1 1)
    simpleGrading (10 1 1)

    hex (182 183 193 192 282 283 293 292)
    (1 1 1)
    simpleGrading (10 1 1)

    hex (183 184 194 193 283 284 294 293)
    (1 1 1)
    simpleGrading (10 1 1)

    hex (184 185 195 194 284 285 295 294)
    (1 1 1)
    simpleGrading (10 1 1)

    hex (185 186 196 195 285 286 296 295)
    (1 1 1)
    simpleGrading (10 1 1)

    hex (186 187 197 196 286 287 297 296)
    (1 1 1)
    simpleGrading (10 1 1)

    hex (187 188 198 197 287 288 298 297)
    (1 1 1)
    simpleGrading (10 1 1)

    hex (188 189 199 198 288 289 299 298)
    (1 1 1)
    simpleGrading (10 1 1)

    hex (200 201 211 210 300 301 311 310)
    (1 1 1)
    simpleGrading (10 1 1)

    hex (201 202 212 211 301 302 312 311)
    (1 1 1)
    simpleGrading (10 1 1)

    hex (202 203 213 212 302 303 313 312)
    (1 1 1)
    simpleGrading (10 1 1)

    hex (203 204 214 213 303 304 314 313)
    (1 1 1)
    simpleGrading (10 1 1)

    hex (204 205 215 214 304 305 315 314)
    (1 1 1)
    simpleGrading (10 1 1)

    hex (205 206 216 215 305 306 316 315)
    (1 1 1)
    simpleGrading (10 1 1)

    hex (206 207 217 216 306 307 317 316)
    (1 1 1)
    simpleGrading (10 1 1)

    hex (207 208 218 217 307 308 318 317)
    (1 1 1)
    simpleGrading (10 1 1)

    hex (208 209 219 218 308 309 319 318)
    (1 1 1)
    simpleGrading (10 1 1)

    hex (210 211 221 220 310 311 321 320)
    (1 1 1)
    simpleGrading (10 1 1)

    hex (211 212 222 221 311 312 322 321)
    (1 1 1)
    simpleGrading (10 1 1)

    hex (212 213 223 222 312 313 323 322)
    (1 1 1)
    simpleGrading (10 1 1)

    hex (213 214 224 223 313 314 324 323)
    (1 1 1)
    simpleGrading (10 1 1)

    hex (214 215 225 224 314 315 325 324)
    (1 1 1)
    simpleGrading (10 1 1)

    hex (215 216 226 225 315 316 326 325)
    (1 1 1)
    simpleGrading (10 1 1)

    hex (216 217 227 226 316 317 327 326)
    (1 1 1)
    simpleGrading (10 1 1)

    hex (217 218 228 227 317 318 328 327)
    (1 1 1)
    simpleGrading (10 1 1)

    hex (218 219 229 228 318 319 329 328)
    (1 1 1)
    simpleGrading (10 1 1)

    hex (220 221 231 230 320 321 331 330)
    (1 1 1)
    simpleGrading (10 1 1)

    hex (221 222 232 231 321 322 332 331)
    (1 1 1)
    simpleGrading (10 1 1)

    hex (222 223 233 232 322 323 333 332)
    (1 1 1)
    simpleGrading (10 1 1)

    hex (223 224 234 233 323 324 334 333)
    (1 1 1)
    simpleGrading (10 1 1)

    hex (224 225 235 234 324 325 335 334)
    (1 1 1)
    simpleGrading (10 1 1)

    hex (225 226 236 235 325 326 336 335)
    (1 1 1)
    simpleGrading (10 1 1)

    hex (226 227 237 236 326 327 337 336)
    (1 1 1)
    simpleGrading (10 1 1)

    hex (227 228 238 237 327 328 338 337)
    (1 1 1)
    simpleGrading (10 1 1)

    hex (228 229 239 238 328 329 339 338)
    (1 1 1)
    simpleGrading (10 1 1)

    hex (230 231 241 240 330 331 341 340)
    (1 1 1)
    simpleGrading (10 1 1)

    hex (231 232 242 241 331 332 342 341)
    (1 1 1)
    simpleGrading (10 1 1)

    hex (232 233 243 242 332 333 343 342)
    (1 1 1)
    simpleGrading (10 1 1)

    hex (233 234 244 243 333 334 344 343)
    (1 1 1)
    simpleGrading (10 1 1)

    hex (234 235 245 244 334 335 345 344)
    (1 1 1)
    simpleGrading (10 1 1)

    hex (235 236 246 245 335 336 346 345)
    (1 1 1)
    simpleGrading (10 1 1)

    hex (236 237 247 246 336 337 347 346)
    (1 1 1)
    simpleGrading (10 1 1)

    hex (237 238 248 247 337 338 348 347)
    (1 1 1)
    simpleGrading (10 1 1)

    hex (238 239 249 248 338 339 349 348)
    (1 1 1)
    simpleGrading (10 1 1)

    hex (240 241 251 250 340 341 351 350)
    (1 1 1)
    simpleGrading (10 1 1)

    hex (241 242 252 251 341 342 352 351)
    (1 1 1)
    simpleGrading (10 1 1)

    hex (242 243 253 252 342 343 353 352)
    (1 1 1)
    simpleGrading (10 1 1)

    hex (243 244 254 253 343 344 354 353)
    (1 1 1)
    simpleGrading (10 1 1)

    hex (244 245 255 254 344 345 355 354)
    (1 1 1)
    simpleGrading (10 1 1)

    hex (245 246 256 255 345 346 356 355)
    (1 1 1)
    simpleGrading (10 1 1)

    hex (246 247 257 256 346 347 357 356)
    (1 1 1)
    simpleGrading (10 1 1)

    hex (247 248 258 257 347 348 358 357)
    (1 1 1)
    simpleGrading (10 1 1)

    hex (248 249 259 258 348 349 359 358)
    (1 1 1)
    simpleGrading (10 1 1)

    hex (250 251 261 260 350 351 361 360)
    (1 1 1)
    simpleGrading (10 1 1)

    hex (251 252 262 261 351 352 362 361)
    (1 1 1)
    simpleGrading (10 1 1)

    hex (252 253 263 262 352 353 363 362)
    (1 1 1)
    simpleGrading (10 1 1)

    hex (253 254 264 263 353 354 364 363)
    (1 1 1)
    simpleGrading (10 1 1)

    hex (254 255 265 264 354 355 365 364)
    (1 1 1)
    simpleGrading (10 1 1)

    hex (255 256 266 265 355 356 366 365)
    (1 1 1)
    simpleGrading (10 1 1)

    hex (256 257 267 266 356 357 367 366)
    (1 1 1)
    simpleGrading (10 1 1)

    hex (257 258 268 267 357 358 368 367)
    (1 1 1)
    simpleGrading (10 1 1)

    hex (258 259 269 268 358 359 369 368)
    (1 1 1)
    simpleGrading (10 1 1)

    hex (260 261 271 270 360 361 371 370)
    (1 1 1)
    simpleGrading (10 1 1)

    hex (261 262 272 271 361 362 372 371)
    (1 1 1)
    simpleGrading (10 1 1)

    hex (262 263 273 272 362 363 373 372)
    (1 1 1)
    simpleGrading (10 1 1)

    hex (263 264 274 273 363 364 374 373)
    (1 1 1)
    simpleGrading (10 1 1)

    hex (264 265 275 274 364 365 375 374)
    (1 1 1)
    simpleGrading (10 1 1)

    hex (265 266 276 275 365 366 376 375)
    (1 1 1)
    simpleGrading (10 1 1)
